                                   MODFLOW 6
                U.S. GEOLOGICAL SURVEY MODULAR HYDROLOGIC MODEL
                            VERSION 6.2.2 07/30/2021

   MODFLOW 6 compiled Jul 31 2021 14:22:53 with IFORT compiler (ver. 19.10.3)

This software has been approved for release by the U.S. Geological 
Survey (USGS). Although the software has been subjected to rigorous 
review, the USGS reserves the right to update the software as needed 
pursuant to further analysis and review. No warranty, expressed or 
implied, is made by the USGS or the U.S. Government as to the 
functionality of the software and related material nor shall the 
fact of release constitute any such warranty. Furthermore, the 
software is released on condition that neither the USGS nor the U.S. 
Government shall be held liable for any damages resulting from its 
authorized or unauthorized use. Also refer to the USGS Water 
Resources Software User Rights Notice for complete use, copyright, 
and distribution information.


System command used to initiate simulation:
mf6

MODFLOW was compiled using uniform precision.

Real Variables
  KIND: 8
  TINY (smallest non-zero value):    2.225074-308
  HUGE (largest value):    1.797693+308
  PRECISION: 15
  BIT SIZE: 64

Integer Variables
  KIND: 4
  HUGE (largest value): 2147483647
  BIT SIZE: 32

Long Integer Variables
  KIND: 8
  HUGE (largest value): 9223372036854775807
  BIT SIZE: 64

Logical Variables
  KIND: 4
  BIT SIZE: 32
 

 OPENED mfsim.nam
 FILE TYPE:NAM   UNIT 1001   STATUS:OLD                 
 FORMAT:FORMATTED              ACCESS:SEQUENTIAL          
 ACTION:READ                

 # File generated by Flopy version 3.3.5 on 06/01/2022 at 13:18:48.

 READING SIMULATION OPTIONS
 END OF SIMULATION OPTIONS

 READING SIMULATION TIMING

 OPENED mfsim.tdis
 FILE TYPE:TDIS   UNIT 1002   STATUS:OLD                 
 FORMAT:FORMATTED              ACCESS:SEQUENTIAL          
 ACTION:READ                


 TDIS -- TEMPORAL DISCRETIZATION PACKAGE,
 VERSION 1 : 11/13/2014 - INPUT READ FROM UNIT 1002
 # File generated by Flopy version 3.3.5 on 06/01/2022 at 13:18:48.
 PROCESSING TDIS OPTIONS
    SIMULATION TIME UNIT IS SECONDS
 END OF TDIS OPTIONS
 PROCESSING TDIS DIMENSIONS
    1 STRESS PERIOD(S) IN SIMULATION
 END OF TDIS DIMENSIONS
 PROCESSING TDIS PERIODDATA


 STRESS PERIOD     LENGTH       TIME STEPS     MULTIPLIER FOR DELT
 ----------------------------------------------------------------------------
        1         6.000000          1                    1.000
 END OF TDIS PERIODDATA
 END OF SIMULATION TIMING

 READING SIMULATION MODELS
    GWF6 model ML will be created as model 1
 END OF SIMULATION MODELS

 READING SIMULATION EXCHANGES
 END OF SIMULATION EXCHANGES

 READING SOLUTIONGROUP

 Creating solution: SLN_1           

 OPENED mfsim.ims
 FILE TYPE:IMS   UNIT 1015   STATUS:OLD                 
 FORMAT:FORMATTED              ACCESS:SEQUENTIAL          
 ACTION:READ                

 END OF SIMULATION SOLUTIONGROUP

 IMS -- ITERATIVE MODEL SOLUTION PACKAGE, VERSION 6, 4/28/2017
         INPUT READ FROM UNIT 1015
 # File generated by Flopy version 3.3.5 on 06/01/2022 at 13:18:48.

 PROCESSING IMS OPTIONS
 END OF IMS OPTIONS

 PROCESSING IMS NONLINEAR
 END OF IMS NONLINEAR DATA
 ***UNDER-RELAXATION WILL NOT BE USED***
 
 ***IMS LINEAR SOLVER WILL BE USED***

 IMSLINEAR -- UNSTRUCTURED LINEAR SOLUTION PACKAGE, VERSION 8, 04/28/2017

 PROCESSING LINEAR DATA
 END OF LINEAR DATA
 
 OUTER ITERATION CONVERGENCE CRITERION    (DVCLOSE) =    0.100000E-04
 MAXIMUM NUMBER OF OUTER ITERATIONS        (MXITER) = 100
 SOLVER PRINTOUT INDEX                     (IPRIMS) = 2
 NONLINEAR ITERATION METHOD            (NONLINMETH) = 0
 LINEAR SOLUTION METHOD                   (LINMETH) = 1

       SOLUTION BY THE        CONJUGATE-GRADIENT       METHOD
 ------------------------------------------------------------------
 MAXIMUM OF 100 CALLS OF SOLUTION ROUTINE
 MAXIMUM OF 50 INTERNAL ITERATIONS PER CALL TO SOLUTION ROUTINE
 LINEAR ACCELERATION METHOD            = CG        
 MATRIX PRECONDITIONING TYPE           = INCOMPLETE LU       
 MATRIX SCALING APPROACH               = NO SCALING          
 MATRIX REORDERING APPROACH            = ORIGINAL ORDERING        
 NUMBER OF ORTHOGONALIZATIONS          = 0
 HEAD CHANGE CRITERION FOR CLOSURE     =    0.10000E-05
 RESIDUAL CHANGE CRITERION FOR CLOSURE =    0.10000E-04
 RESIDUAL CONVERGENCE OPTION           = 1
 RESIDUAL CONVERGENCE NORM             = INFINITY NORM S 
 RELAXATION FACTOR                     =    0.00000E+00



 
    Solving:  Stress period:     1    Time step:     1
 
1
                            STRESS PERIOD NO. 1, LENGTH =   6.000000    
                            -----------------------------------------------
                            NUMBER OF TIME STEPS = 1
                            MULTIPLIER FOR DELT =     1.000
                            INITIAL TIME STEP SIZE =   6.000000    

 SLN_1 OUTER ITERATION SUMMARY
 ----------------------------------------------------------------------------------------------------------
                                OUTER      INNER                    STEP   MAXIMUM CHANGE MODEL-(CELLID) OR
 OUTER ITERATION STEP       ITERATION  ITERATION  MAXIMUM CHANGE SUCCESS             MODEL-PACKAGE-(NUMBER)
 ----------------------------------------------------------------------------------------------------------
 Model                              1         50       27.255826                            1_GWF-(1,26519)
 Model                              2         50      -22.318242                            1_GWF-(1,26519)
 Model                              3         50       1.6909701                            1_GWF-(1,24191)
 Model                              4         50     -0.32828066                            1_GWF-(1,24362)
 Model                              5         50      0.10911556                            1_GWF-(1,23068)
 Model                              6         50 -3.65457486E-02                             1_GWF-(1,8836)
 Model                              7         50  1.08236720E-02                            1_GWF-(1,24772)
 Model                              8         50 -5.34396483E-03                            1_GWF-(1,11439)
 Model                              9         50  1.29663671E-03                            1_GWF-(1,24769)
 Model                             10         50 -4.90459039E-04                             1_GWF-(1,8272)
 Model                             11         50  1.53644999E-04                            1_GWF-(1,24769)
 Model                             12         50 -5.83926202E-05                             1_GWF-(1,8273)
 Model                             13         50  1.80835675E-05                            1_GWF-(1,24770)
 Model                             14         12 -5.03605300E-06                            1_GWF-(1,24723)
 Model                             15          6 -2.86624923E-06                            1_GWF-(1,26422)
 Model                             16          1  9.26538679E-07       *                    1_GWF-(1,26486)
 ----------------------------------------------------------------------------------------------------------


 16 CALLS TO NUMERICAL SOLUTION IN TIME STEP 1 STRESS PERIOD 1
 669 TOTAL ITERATIONS

 SLN_1 INNER ITERATION SUMMARY
 --------------------------------------------------------------------------------------------------------------------------------------
      TOTAL      OUTER      INNER                                                            MAXIMUM                                   
  ITERATION  ITERATION  ITERATION  MAXIMUM CHANGE      MAXIMUM CHANGE MODEL-(CELLID)        RESIDUAL    MAXIMUM RESIDUAL MODEL-(CELLID)
 --------------------------------------------------------------------------------------------------------------------------------------
          1          1          1      -11.760875                    1_GWF-(1,12785)      0.58879228                    1_GWF-(1,15911)
          2          1          2       5.9164955                    1_GWF-(1,26601)      0.39574335                    1_GWF-(1,15921)
          3          1          3       6.0601515                    1_GWF-(1,26565)      0.35192758                    1_GWF-(1,15940)
          4          1          4       5.5139385                    1_GWF-(1,26510)      0.26870118                    1_GWF-(1,15975)
          5          1          5       4.0376265                    1_GWF-(1,26647)     -0.12395784                    1_GWF-(1,15912)
          6          1          6       4.0276604                    1_GWF-(1,26649) -8.09160635E-02                    1_GWF-(1,15918)
          7          1          7       3.3315267                    1_GWF-(1,26663) -9.74640078E-02                    1_GWF-(1,15948)
          8          1          8       4.3804463                    1_GWF-(1,26665) -9.66318676E-02                    1_GWF-(1,15942)
          9          1          9       4.6669959                    1_GWF-(1,26666) -6.07898480E-02                    1_GWF-(1,15940)
         10          1         10       6.4052922                    1_GWF-(1,26665) -6.08034151E-02                    1_GWF-(1,15948)
         11          1         11       4.2597613                    1_GWF-(1,26666)  6.09524175E-02                    1_GWF-(1,15940)
         12          1         12       3.3081459                    1_GWF-(1,26649)  6.16556110E-02                    1_GWF-(1,15942)
         13          1         13       2.9637022                    1_GWF-(1,26622)  4.34017621E-02                    1_GWF-(1,15940)
         14          1         14      -2.8645389                    1_GWF-(1,26622) -3.53012436E-02                    1_GWF-(1,15921)
         15          1         15      -2.3587033                    1_GWF-(1,26623)  3.62591331E-02                    1_GWF-(1,10652)
         16          1         16      -2.1419395                    1_GWF-(1,26622)  4.16032848E-02                    1_GWF-(1,10650)
         17          1         17      -2.0064647                    1_GWF-(1,26623)  3.10105915E-02                    1_GWF-(1,14799)
         18          1         18      -2.1355829                    1_GWF-(1,26589) -3.46451640E-02                    1_GWF-(1,15941)
         19          1         19      -3.6259308                    1_GWF-(1,26588)  4.22677347E-02                    1_GWF-(1,10966)
         20          1         20      -3.8420495                    1_GWF-(1,26543)  4.47281024E-02                    1_GWF-(1,10650)
         21          1         21      -3.4181114                    1_GWF-(1,26588) -2.92217514E-02                    1_GWF-(1,11194)
         22          1         22      -3.1521580                    1_GWF-(1,26486)  3.35255493E-02                    1_GWF-(1,10652)
         23          1         23      -3.3133438                    1_GWF-(1,26487)  3.39758823E-02                    1_GWF-(1,10650)
         24          1         24      -3.4257387                    1_GWF-(1,26486)  3.23964855E-02                    1_GWF-(1,14799)
         25          1         25      -2.8581939                    1_GWF-(1,26487)  2.55015830E-02                    1_GWF-(1,10955)
         26          1         26       2.5764115                    1_GWF-(1,20913)  3.03551884E-02                    1_GWF-(1,10651)
         27          1         27       2.5138442                    1_GWF-(1,20921)  3.13784103E-02                    1_GWF-(1,15853)
         28          1         28       1.7732204                    1_GWF-(1,26487)  2.24620934E-02                    1_GWF-(1,11180)
         29          1         29       1.6987079                    1_GWF-(1,26420)  2.27161862E-02                    1_GWF-(1,10652)
         30          1         30       1.8024080                    1_GWF-(1,26422)  2.64138052E-02                    1_GWF-(1,10650)
         31          1         31       1.7902006                    1_GWF-(1,26350) -2.11421973E-02                    1_GWF-(1,10966)
         32          1         32       1.6610472                    1_GWF-(1,26422) -2.51727856E-02                    1_GWF-(1,10963)
         33          1         33       1.4169646                    1_GWF-(1,26350) -1.70191104E-02                    1_GWF-(1,10958)
         34          1         34       1.3718429                    1_GWF-(1,26422) -1.68755351E-02                    1_GWF-(1,10965)
         35          1         35       1.0725521                    1_GWF-(1,26350) -2.32214062E-02                    1_GWF-(1,10963)
         36          1         36      0.79085110                    1_GWF-(1,26422) -1.90639227E-02                    1_GWF-(1,10958)
         37          1         37     -0.89632413                    1_GWF-(1,26422) -1.57221316E-02                    1_GWF-(1,10968)
         38          1         38     -0.94823523                    1_GWF-(1,26350) -1.51737278E-02                    1_GWF-(1,11180)
         39          1         39     -0.96932297                    1_GWF-(1,26422)  1.95503996E-02                    1_GWF-(1,15942)
         40          1         40     -0.89929627                    1_GWF-(1,26350) -2.10897864E-02                    1_GWF-(1,15941)
         41          1         41     -0.75408694                    1_GWF-(1,26649)  2.02703710E-02                    1_GWF-(1,15939)
         42          1         42     -0.88533590                    1_GWF-(1,26623)  1.96073687E-02                    1_GWF-(1,15940)
         43          1         43     -0.78192554                    1_GWF-(1,26586) -1.66086469E-02                    1_GWF-(1,15940)
         44          1         44     -0.62624299                    1_GWF-(1,26623) -1.99002559E-02                    1_GWF-(1,15941)
         45          1         45      0.49284982                    1_GWF-(1,26218)  2.23587830E-02                    1_GWF-(1,15941)
         46          1         46     -0.58915373                    1_GWF-(1,20926)  1.60804058E-02                    1_GWF-(1,15940)
         47          1         47     -0.62643187                    1_GWF-(1,20933) -2.20615302E-02                    1_GWF-(1,15940)
         48          1         48     -0.69707368                    1_GWF-(1,21272) -1.86674987E-02                    1_GWF-(1,15941)
         49          1         49     -0.69659276                    1_GWF-(1,21261)  2.05033367E-02                    1_GWF-(1,15941)
         50          1         50     -0.71632118                    1_GWF-(1,26218) -2.15843949E-02                    1_GWF-(1,15941)
         51          2          1      -22.715279                    1_GWF-(1,26519)     -0.16255980                    1_GWF-(1,26458)
         52          2          2      -8.8276914                    1_GWF-(1,26569)  4.61468584E-02                    1_GWF-(1,26458)
         53          2          3      -4.0587720                    1_GWF-(1,26637)  2.54582951E-02                    1_GWF-(1,26516)
         54          2          4      -4.4960219                    1_GWF-(1,26665) -2.03193847E-02                    1_GWF-(1,26458)
         55          2          5      -3.3085477                    1_GWF-(1,26649)  1.75931038E-02                    1_GWF-(1,26458)
         56          2          6      -2.6319569                    1_GWF-(1,26589)  1.06928372E-02                    1_GWF-(1,26516)
         57          2          7      -2.3407839                    1_GWF-(1,26543) -1.07340571E-02                    1_GWF-(1,15940)
         58          2          8      -2.0752042                    1_GWF-(1,26486)  1.22618657E-02                    1_GWF-(1,15940)
         59          2          9      -1.6039248                    1_GWF-(1,26487)  1.05694492E-02                     1_GWF-(1,9291)
         60          2         10      -1.4687517                    1_GWF-(1,26350)  1.05509243E-02                     1_GWF-(1,9290)
         61          2         11      -1.2192658                    1_GWF-(1,26422)  1.05082717E-02                     1_GWF-(1,9290)
         62          2         12     -0.98148698                    1_GWF-(1,26217)  1.04519038E-02                     1_GWF-(1,9290)
         63          2         13     -0.84025428                    1_GWF-(1,26218)  1.03864093E-02                     1_GWF-(1,9290)
         64          2         14     -0.60696034                    1_GWF-(1,26649)  1.02917122E-02                     1_GWF-(1,9290)
         65          2         15     -0.70476070                    1_GWF-(1,26622)  1.01263967E-02                     1_GWF-(1,9290)
         66          2         16     -0.80805370                    1_GWF-(1,25515)  9.92615445E-03                     1_GWF-(1,9290)
         67          2         17       1.1455314                    1_GWF-(1,26350)  9.76729181E-03                     1_GWF-(1,9290)
         68          2         18       1.0593055                    1_GWF-(1,26217)  9.69278430E-03                     1_GWF-(1,9290)
         69          2         19      0.90165912                    1_GWF-(1,26218)  9.65838835E-03                     1_GWF-(1,9290)
         70          2         20     -0.57835304                    1_GWF-(1,26588)  9.63605302E-03                     1_GWF-(1,9290)
         71          2         21       1.1023865                    1_GWF-(1,26588)  9.60587680E-03                     1_GWF-(1,9290)
         72          2         22       1.4850642                    1_GWF-(1,26543)  9.43626895E-03                     1_GWF-(1,9290)
         73          2         23      0.89270402                    1_GWF-(1,26542)  9.11726851E-03                     1_GWF-(1,9291)
         74          2         24     -0.88773372                    1_GWF-(1,26422)  8.75465734E-03                     1_GWF-(1,9290)
         75          2         25      -1.1898845                    1_GWF-(1,26486)  8.39183584E-03                     1_GWF-(1,9291)
         76          2         26      -1.3326952                    1_GWF-(1,26487)  8.09793177E-03                     1_GWF-(1,9290)
         77          2         27     -0.93218748                    1_GWF-(1,26420)  7.86049253E-03                     1_GWF-(1,9291)
         78          2         28     -0.49030076                    1_GWF-(1,26543)  7.69656005E-03                     1_GWF-(1,9291)
         79          2         29     -0.47846057                    1_GWF-(1,26327)  7.55896381E-03                     1_GWF-(1,9290)
         80          2         30      0.39537091                    1_GWF-(1,26420)  8.88066638E-03                    1_GWF-(1,15941)
         81          2         31     -0.40209052                    1_GWF-(1,26184)  1.37689986E-02                    1_GWF-(1,15940)
         82          2         32     -0.41754444                    1_GWF-(1,26672)  1.80271930E-02                    1_GWF-(1,15941)
         83          2         33     -0.47005614                    1_GWF-(1,26156)  2.34095146E-02                    1_GWF-(1,15940)
         84          2         34     -0.46387543                    1_GWF-(1,25790) -2.70046067E-02                    1_GWF-(1,15940)
         85          2         35      0.66107175                    1_GWF-(1,26422) -2.72603520E-02                    1_GWF-(1,15941)
         86          2         36      0.57053104                    1_GWF-(1,26350) -2.03621418E-02                    1_GWF-(1,15940)
         87          2         37     -0.56112481                    1_GWF-(1,26350) -1.07980692E-02                    1_GWF-(1,15941)
         88          2         38      0.61447051                    1_GWF-(1,26350)  7.05653085E-03                    1_GWF-(1,10650)
         89          2         39      0.58043813                    1_GWF-(1,26422) -1.17777214E-02                    1_GWF-(1,15940)
         90          2         40     -0.53108151                    1_GWF-(1,26422)  1.90281238E-02                    1_GWF-(1,15940)
         91          2         41      0.40664440                    1_GWF-(1,20977) -2.12894342E-02                    1_GWF-(1,15940)
         92          2         42      0.29964504                    1_GWF-(1,21288)  2.39291420E-02                    1_GWF-(1,15940)
         93          2         43      0.32125334                    1_GWF-(1,21283) -2.31242258E-02                    1_GWF-(1,15940)
         94          2         44      0.34243582                    1_GWF-(1,21271)  2.43831059E-02                    1_GWF-(1,15940)
         95          2         45      0.34810288                    1_GWF-(1,20578) -2.53117539E-02                    1_GWF-(1,15940)
         96          2         46      0.38836615                    1_GWF-(1,20580) -2.28945491E-02                    1_GWF-(1,15941)
         97          2         47      0.40640407                    1_GWF-(1,20570) -1.95355112E-02                    1_GWF-(1,15940)
         98          2         48     -0.30616568                    1_GWF-(1,26422) -1.46407628E-02                    1_GWF-(1,15941)
         99          2         49     -0.30267395                    1_GWF-(1,20996)  1.16352687E-02                    1_GWF-(1,10652)
        100          2         50     -0.34395576                    1_GWF-(1,20983)  9.28871452E-03                    1_GWF-(1,10651)
        101          3          1      0.21745758                    1_GWF-(1,26673) -5.21354842E-02                    1_GWF-(1,11430)
        102          3          2      0.26898095                    1_GWF-(1,26672)  9.50986199E-03                    1_GWF-(1,10651)
        103          3          3     -0.24530482                    1_GWF-(1,26672)  4.99084235E-02                    1_GWF-(1,11430)
        104          3          4      0.24956469                    1_GWF-(1,26350) -3.99490662E-02                    1_GWF-(1,11430)
        105          3          5     -0.31439443                    1_GWF-(1,20616)  1.20068751E-02                    1_GWF-(1,11430)
        106          3          6     -0.23609818                    1_GWF-(1,20609)  1.75958079E-02                    1_GWF-(1,11430)
        107          3          7     -0.19303255                    1_GWF-(1,26674) -2.74473660E-02                    1_GWF-(1,11430)
        108          3          8     -0.23601049                    1_GWF-(1,26663)  1.71161666E-02                    1_GWF-(1,11430)
        109          3          9      0.17801621                    1_GWF-(1,20700)  6.80166067E-03                    1_GWF-(1,10652)
        110          3         10      0.20923686                    1_GWF-(1,20699) -1.96999425E-02                    1_GWF-(1,11430)
        111          3         11      0.23232642                    1_GWF-(1,20596)  1.70289444E-02                    1_GWF-(1,11430)
        112          3         12     -0.24608157                    1_GWF-(1,26422)  5.23615785E-03                    1_GWF-(1,14801)
        113          3         13      0.20388410                    1_GWF-(1,26422) -8.85335008E-03                    1_GWF-(1,11430)
        114          3         14      0.22960705                    1_GWF-(1,26350)  1.31271111E-02                    1_GWF-(1,11430)
        115          3         15     -0.28132006                    1_GWF-(1,26350) -6.62753484E-03                    1_GWF-(1,11430)
        116          3         16     -0.27074416                    1_GWF-(1,26422) -6.01182664E-03                    1_GWF-(1,11430)
        117          3         17      0.22705957                    1_GWF-(1,20913)  1.22493670E-02                    1_GWF-(1,11430)
        118          3         18     -0.19519987                    1_GWF-(1,26672) -7.14926990E-03                    1_GWF-(1,11430)
        119          3         19      0.17436013                    1_GWF-(1,26672)  5.76966208E-03                    1_GWF-(1,14801)
        120          3         20     -0.18817169                    1_GWF-(1,20911)  7.33620858E-03                    1_GWF-(1,11430)
        121          3         21     -0.18794790                    1_GWF-(1,20914) -7.29844226E-03                    1_GWF-(1,11430)
        122          3         22     -0.18980894                    1_GWF-(1,20229)  5.28481949E-03                    1_GWF-(1,14800)
        123          3         23     -0.14083386                    1_GWF-(1,20571)  5.18035668E-03                    1_GWF-(1,14801)
        124          3         24      0.22013411                    1_GWF-(1,26486) -5.62459250E-03                    1_GWF-(1,11430)
        125          3         25      0.25720751                    1_GWF-(1,26487) -3.30375314E-03                    1_GWF-(1,15221)
        126          3         26      0.19133760                    1_GWF-(1,26486)  4.81844220E-03                    1_GWF-(1,11430)
        127          3         27      0.11768077                    1_GWF-(1,26422) -4.72801416E-03                    1_GWF-(1,11430)
        128          3         28     -0.18643866                    1_GWF-(1,26588)  6.21006108E-03                    1_GWF-(1,14801)
        129          3         29     -0.28276477                    1_GWF-(1,26543)  4.95230939E-03                    1_GWF-(1,14800)
        130          3         30     -0.23785706                    1_GWF-(1,26588) -2.94350085E-03                    1_GWF-(1,11430)
        131          3         31      0.17750883                    1_GWF-(1,26588)  4.77773101E-03                    1_GWF-(1,14801)
        132          3         32 -9.87729829E-02                    1_GWF-(1,26588)  6.41223193E-03                    1_GWF-(1,14800)
        133          3         33     -0.12153875                    1_GWF-(1,26422)  6.48929667E-03                    1_GWF-(1,14801)
        134          3         34      0.14405890                    1_GWF-(1,26622) -5.54857482E-03                    1_GWF-(1,14801)
        135          3         35     -0.12623439                    1_GWF-(1,26622)  3.16736181E-03                    1_GWF-(1,11430)
        136          3         36      0.12370733                    1_GWF-(1,26622) -3.31670546E-03                    1_GWF-(1,14800)
        137          3         37      0.11795914                    1_GWF-(1,26649) -5.21713068E-03                    1_GWF-(1,14801)
        138          3         38  9.65651342E-02                    1_GWF-(1,26622) -4.98389749E-03                    1_GWF-(1,14800)
        139          3         39 -8.59591447E-02                    1_GWF-(1,26666)  3.14068838E-03                    1_GWF-(1,14800)
        140          3         40     -0.14118617                    1_GWF-(1,26665) -1.66842075E-03                    1_GWF-(1,11430)
        141          3         41     -0.10542495                    1_GWF-(1,26666)  2.77971323E-03                    1_GWF-(1,14801)
        142          3         42     -0.10286124                    1_GWF-(1,26665) -5.48574755E-03                    1_GWF-(1,14801)
        143          3         43 -8.68271353E-02                    1_GWF-(1,26217) -6.61518470E-03                    1_GWF-(1,14800)
        144          3         44  8.53216541E-02                    1_GWF-(1,26588) -7.63358338E-03                    1_GWF-(1,14801)
        145          3         45  8.79950518E-02                    1_GWF-(1,26665) -8.59655165E-03                    1_GWF-(1,14800)
        146          3         46      0.11145777                    1_GWF-(1,26648) -1.08764091E-02                    1_GWF-(1,14801)
        147          3         47  8.55151245E-02                    1_GWF-(1,26218) -1.00679957E-02                    1_GWF-(1,14800)
        148          3         48  9.03868737E-02                    1_GWF-(1,26453) -9.67417840E-03                    1_GWF-(1,14801)
        149          3         49     -0.11515943                    1_GWF-(1,26648)  9.30188020E-03                    1_GWF-(1,14801)
        150          3         50     -0.12424197                    1_GWF-(1,26463) -1.00254923E-02                    1_GWF-(1,14801)
        151          4          1 -6.90839529E-02                    1_GWF-(1,26217) -7.97326328E-03                    1_GWF-(1,14800)
        152          4          2 -6.89532224E-02                    1_GWF-(1,26218) -9.23154446E-03                    1_GWF-(1,14801)
        153          4          3 -5.77863498E-02                    1_GWF-(1,26217) -8.51485179E-03                    1_GWF-(1,14800)
        154          4          4  6.55388551E-02                    1_GWF-(1,26607) -1.02843517E-02                    1_GWF-(1,14801)
        155          4          5 -6.32312209E-02                    1_GWF-(1,20226) -9.97925676E-03                    1_GWF-(1,14800)
        156          4          6 -7.21615821E-02                    1_GWF-(1,26218) -8.00697368E-03                    1_GWF-(1,14801)
        157          4          7 -6.25967772E-02                    1_GWF-(1,20211) -6.86923313E-03                    1_GWF-(1,14800)
        158          4          8 -5.42622780E-02                    1_GWF-(1,26665) -5.87637418E-03                    1_GWF-(1,14801)
        159          4          9 -6.01775117E-02                    1_GWF-(1,26666) -3.90167095E-03                    1_GWF-(1,14800)
        160          4         10  6.65433121E-02                    1_GWF-(1,26666) -1.85587377E-03                    1_GWF-(1,14801)
        161          4         11  9.59896089E-02                    1_GWF-(1,26665) -1.38845343E-03                    1_GWF-(1,14801)
        162          4         12  6.23163421E-02                    1_GWF-(1,26666) -4.13698375E-03                    1_GWF-(1,14800)
        163          4         13  5.53241915E-02                    1_GWF-(1,26649) -5.08749245E-03                    1_GWF-(1,14801)
        164          4         14  5.31548142E-02                    1_GWF-(1,26622) -4.15006069E-03                    1_GWF-(1,14800)
        165          4         15 -5.92973468E-02                    1_GWF-(1,26622) -1.86606055E-03                    1_GWF-(1,14801)
        166          4         16 -6.94366625E-02                    1_GWF-(1,26649) -2.45671413E-03                    1_GWF-(1,14801)
        167          4         17 -7.93462968E-02                    1_GWF-(1,26622)  4.13885184E-03                    1_GWF-(1,14801)
        168          4         18 -5.65951921E-02                    1_GWF-(1,26623)  5.11955877E-03                    1_GWF-(1,14800)
        169          4         19 -5.15296151E-02                    1_GWF-(1,26543)  4.96587488E-03                    1_GWF-(1,14801)
        170          4         20 -9.34927648E-02                    1_GWF-(1,26588)  2.42296552E-03                    1_GWF-(1,14800)
        171          4         21 -8.31500113E-02                    1_GWF-(1,26543)  1.61246454E-03                    1_GWF-(1,11430)
        172          4         22  8.81524116E-02                    1_GWF-(1,26543)  3.19749221E-03                    1_GWF-(1,14801)
        173          4         23  6.20969762E-02                    1_GWF-(1,26588) -3.93655829E-03                    1_GWF-(1,14801)
        174          4         24  4.86139746E-02                    1_GWF-(1,26486) -4.06375573E-03                    1_GWF-(1,14800)
        175          4         25  6.30514848E-02                    1_GWF-(1,26487) -2.65084855E-03                    1_GWF-(1,14801)
        176          4         26 -7.69926509E-02                    1_GWF-(1,26487) -1.35344117E-03                    1_GWF-(1,11430)
        177          4         27 -6.92327762E-02                    1_GWF-(1,26420)  3.72293370E-03                    1_GWF-(1,14801)
        178          4         28 -4.85398038E-02                    1_GWF-(1,26487)  4.80491977E-03                    1_GWF-(1,14800)
        179          4         29  5.09637510E-02                    1_GWF-(1,20229)  5.51927824E-03                    1_GWF-(1,14801)
        180          4         30  5.25439112E-02                    1_GWF-(1,20913)  5.42661718E-03                    1_GWF-(1,14800)
        181          4         31  4.64018452E-02                    1_GWF-(1,20911)  5.34906724E-03                    1_GWF-(1,14801)
        182          4         32 -4.39455088E-02                    1_GWF-(1,26672)  5.24232372E-03                    1_GWF-(1,14800)
        183          4         33 -4.93784347E-02                    1_GWF-(1,26665)  6.05616096E-03                    1_GWF-(1,14801)
        184          4         34 -4.67722489E-02                    1_GWF-(1,26422)  5.65431160E-03                    1_GWF-(1,14800)
        185          4         35 -5.61154859E-02                    1_GWF-(1,26350)  4.76647408E-03                    1_GWF-(1,14801)
        186          4         36 -6.32884803E-02                    1_GWF-(1,26422)  3.27441629E-03                    1_GWF-(1,14800)
        187          4         37 -6.29970108E-02                    1_GWF-(1,26350)  1.95465625E-03                    1_GWF-(1,14801)
        188          4         38 -6.06606124E-02                    1_GWF-(1,26422)  1.12357402E-03                    1_GWF-(1,10481)
        189          4         39 -5.36994775E-02                    1_GWF-(1,20587)  2.33533821E-03                    1_GWF-(1,14800)
        190          4         40 -4.95265322E-02                    1_GWF-(1,20592)  4.14220913E-03                    1_GWF-(1,14801)
        191          4         41 -4.88100626E-02                    1_GWF-(1,20606)  4.66544803E-03                    1_GWF-(1,14800)
        192          4         42  3.54485848E-02                    1_GWF-(1,26544)  5.20405003E-03                    1_GWF-(1,14801)
        193          4         43  4.20739035E-02                    1_GWF-(1,26421)  5.57580358E-03                    1_GWF-(1,14800)
        194          4         44  3.79581636E-02                    1_GWF-(1,26348)  5.94160203E-03                    1_GWF-(1,14801)
        195          4         45  5.21855297E-02                    1_GWF-(1,26218)  5.47313002E-03                    1_GWF-(1,14800)
        196          4         46  3.90634408E-02                    1_GWF-(1,20618)  5.76395078E-03                    1_GWF-(1,14801)
        197          4         47  3.34544188E-02                    1_GWF-(1,20738)  5.35020708E-03                    1_GWF-(1,14800)
        198          4         48  2.55504873E-02                    1_GWF-(1,26397)  4.63978403E-03                    1_GWF-(1,14801)
        199          4         49 -2.46628063E-02                    1_GWF-(1,26217)  3.49993939E-03                    1_GWF-(1,14800)
        200          4         50 -3.08796092E-02                    1_GWF-(1,26218)  3.37031037E-03                    1_GWF-(1,14801)
        201          5          1 -1.36961311E-02                    1_GWF-(1,26217)  3.07693774E-03                    1_GWF-(1,14800)
        202          5          2 -2.16973853E-02                    1_GWF-(1,26218)  3.98801969E-03                    1_GWF-(1,14801)
        203          5          3 -2.02680082E-02                    1_GWF-(1,26397)  4.41348730E-03                    1_GWF-(1,14800)
        204          5          4 -2.09497605E-02                    1_GWF-(1,20738)  4.75653187E-03                    1_GWF-(1,14801)
        205          5          5 -2.70949239E-02                    1_GWF-(1,20706)  4.41314810E-03                    1_GWF-(1,14800)
        206          5          6 -3.12847306E-02                    1_GWF-(1,26218)  4.29218277E-03                    1_GWF-(1,14801)
        207          5          7 -2.36968159E-02                    1_GWF-(1,26217)  3.78619299E-03                    1_GWF-(1,14800)
        208          5          8 -2.25050659E-02                    1_GWF-(1,26421)  3.44510189E-03                    1_GWF-(1,14801)
        209          5          9  2.08589201E-02                    1_GWF-(1,20708)  2.98568782E-03                    1_GWF-(1,14800)
        210          5         10  2.57129409E-02                    1_GWF-(1,20614)  2.71115469E-03                    1_GWF-(1,14801)
        211          5         11  2.52622167E-02                    1_GWF-(1,20600)  1.83150189E-03                    1_GWF-(1,14800)
        212          5         12  2.47317680E-02                    1_GWF-(1,26350)  1.06223448E-03                    1_GWF-(1,15941)
        213          5         13  3.52131545E-02                    1_GWF-(1,26422) -1.06043644E-03                    1_GWF-(1,11430)
        214          5         14  3.49328569E-02                    1_GWF-(1,26350)  1.03927132E-03                    1_GWF-(1,11430)
        215          5         15  3.10069139E-02                    1_GWF-(1,26422)  1.69574036E-03                    1_GWF-(1,14801)
        216          5         16  2.59969317E-02                    1_GWF-(1,26350)  2.03068282E-03                    1_GWF-(1,14800)
        217          5         17  2.12325257E-02                    1_GWF-(1,26422)  2.27283740E-03                    1_GWF-(1,14801)
        218          5         18 -1.43273028E-02                    1_GWF-(1,26422)  2.15384191E-03                    1_GWF-(1,14800)
        219          5         19 -1.62852653E-02                    1_GWF-(1,26350)  2.16579229E-03                    1_GWF-(1,14801)
        220          5         20 -1.82591691E-02                    1_GWF-(1,20911)  1.91326547E-03                    1_GWF-(1,14800)
        221          5         21 -2.23495930E-02                    1_GWF-(1,26420)  1.54969527E-03                    1_GWF-(1,14801)
        222          5         22 -2.49036317E-02                    1_GWF-(1,26487)  7.17572476E-04                    1_GWF-(1,14800)
        223          5         23 -2.52221481E-02                    1_GWF-(1,26486)  7.40644308E-04                    1_GWF-(1,14800)
        224          5         24  1.91570534E-02                    1_GWF-(1,26486)  1.38515341E-03                    1_GWF-(1,14801)
        225          5         25  1.45541465E-02                    1_GWF-(1,20216) -1.50518047E-03                    1_GWF-(1,14801)
        226          5         26  1.14688448E-02                    1_GWF-(1,20216) -1.32099735E-03                    1_GWF-(1,14800)
        227          5         27  1.04734182E-02                    1_GWF-(1,26588)  1.01049573E-03                    1_GWF-(1,14800)
        228          5         28 -1.68171345E-02                    1_GWF-(1,26588)  6.49054085E-04                    1_GWF-(1,14801)
        229          5         29 -1.97165856E-02                    1_GWF-(1,26543)  5.57744874E-04                    1_GWF-(1,11430)
        230          5         30 -1.52826205E-02                    1_GWF-(1,26588)  7.31448121E-04                    1_GWF-(1,14800)
        231          5         31  1.50016149E-02                    1_GWF-(1,26588)  1.00995033E-03                    1_GWF-(1,14801)
        232          5         32  9.54786148E-03                    1_GWF-(1,26622)  8.06117215E-04                    1_GWF-(1,14800)
        233          5         33  1.44026519E-02                    1_GWF-(1,26623)  4.65152653E-04                    1_GWF-(1,14801)
        234          5         34  2.01424433E-02                    1_GWF-(1,26622) -5.03181673E-04                    1_GWF-(1,11430)
        235          5         35  1.54448536E-02                    1_GWF-(1,26543) -6.83280307E-04                    1_GWF-(1,14801)
        236          5         36  1.13933723E-02                    1_GWF-(1,26588) -8.08148731E-04                    1_GWF-(1,14800)
        237          5         37  8.28214728E-03                    1_GWF-(1,26665) -8.25709564E-04                    1_GWF-(1,14801)
        238          5         38  1.10978279E-02                    1_GWF-(1,26663) -6.39936015E-04                    1_GWF-(1,14800)
        239          5         39 -1.14098941E-02                    1_GWF-(1,26666)  2.83193680E-04                    1_GWF-(1,11514)
        240          5         40 -1.56857534E-02                    1_GWF-(1,26665) -3.80980060E-04                    1_GWF-(1,11430)
        241          5         41 -1.07798370E-02                    1_GWF-(1,26666) -5.36244552E-04                    1_GWF-(1,14800)
        242          5         42 -8.07211874E-03                    1_GWF-(1,26665) -8.63399124E-04                    1_GWF-(1,14801)
        243          5         43 -1.00953358E-02                    1_GWF-(1,26217) -9.74410304E-04                    1_GWF-(1,14800)
        244          5         44  7.59780848E-03                    1_GWF-(1,20215) -1.11317380E-03                    1_GWF-(1,14801)
        245          5         45  7.42490985E-03                    1_GWF-(1,26665) -1.38120545E-03                    1_GWF-(1,14800)
        246          5         46  8.07200886E-03                    1_GWF-(1,26666) -1.45019824E-03                    1_GWF-(1,14801)
        247          5         47  7.98112980E-03                    1_GWF-(1,26218) -1.16513859E-03                    1_GWF-(1,14800)
        248          5         48  1.06690859E-02                    1_GWF-(1,26217) -1.22418312E-03                    1_GWF-(1,14801)
        249          5         49  1.20748044E-02                    1_GWF-(1,26218) -1.05542816E-03                    1_GWF-(1,14800)
        250          5         50  9.63616604E-03                    1_GWF-(1,26217) -1.11060674E-03                    1_GWF-(1,14801)
        251          6          1 -9.09147494E-03                    1_GWF-(1,26217) -9.55652060E-04                    1_GWF-(1,14800)
        252          6          2 -1.00717545E-02                    1_GWF-(1,26218) -1.05089819E-03                    1_GWF-(1,14801)
        253          6          3 -8.56924385E-03                    1_GWF-(1,26217) -9.53472888E-04                    1_GWF-(1,14800)
        254          6          4  6.97838372E-03                    1_GWF-(1,26217) -1.18986768E-03                    1_GWF-(1,14801)
        255          6          5 -6.26820314E-03                    1_GWF-(1,20232) -1.15222870E-03                    1_GWF-(1,14800)
        256          6          6 -6.89464889E-03                    1_GWF-(1,26218) -8.84080924E-04                    1_GWF-(1,14801)
        257          6          7 -5.74429530E-03                    1_GWF-(1,20212) -7.44999206E-04                    1_GWF-(1,14800)
        258          6          8  5.84392788E-03                    1_GWF-(1,26217) -6.40727795E-04                    1_GWF-(1,14801)
        259          6          9 -5.77741383E-03                    1_GWF-(1,26666) -4.08815905E-04                    1_GWF-(1,14800)
        260          6         10  6.60919103E-03                    1_GWF-(1,26666) -2.97653226E-04                    1_GWF-(1,11430)
        261          6         11  9.73244682E-03                    1_GWF-(1,26665)  1.56905125E-04                    1_GWF-(1,11430)
        262          6         12 -7.26547702E-03                    1_GWF-(1,26665) -3.94873312E-04                    1_GWF-(1,14800)
        263          6         13 -6.83348566E-03                    1_GWF-(1,26666) -5.05799574E-04                    1_GWF-(1,14801)
        264          6         14 -4.42643026E-03                    1_GWF-(1,26665) -5.03997724E-04                    1_GWF-(1,14800)
        265          6         15  6.23236070E-03                    1_GWF-(1,26649) -4.14179166E-04                    1_GWF-(1,14801)
        266          6         16 -7.76457697E-03                    1_GWF-(1,26649) -3.27401628E-04                    1_GWF-(1,11430)
        267          6         17 -1.00800225E-02                    1_GWF-(1,26622)  2.40987616E-04                    1_GWF-(1,14801)
        268          6         18 -7.28302123E-03                    1_GWF-(1,26623)  4.50301249E-04                    1_GWF-(1,14800)
        269          6         19  6.63123084E-03                    1_GWF-(1,26623)  5.55447166E-04                    1_GWF-(1,14801)
        270          6         20 -6.88705613E-03                    1_GWF-(1,26588)  3.84476319E-04                    1_GWF-(1,14800)
        271          6         21 -7.25582848E-03                    1_GWF-(1,26589)  3.11092176E-04                    1_GWF-(1,11430)
        272          6         22  7.92427975E-03                    1_GWF-(1,26543) -2.50640584E-04                    1_GWF-(1,11430)
        273          6         23  7.12144947E-03                    1_GWF-(1,26588) -4.33631856E-04                    1_GWF-(1,14801)
        274          6         24 -4.78080575E-03                    1_GWF-(1,26588) -5.56315830E-04                    1_GWF-(1,14800)
        275          6         25  4.67330342E-03                    1_GWF-(1,26588) -5.99048733E-04                    1_GWF-(1,14801)
        276          6         26  8.14049545E-03                    1_GWF-(1,26543)  5.98761931E-04                    1_GWF-(1,14801)
        277          6         27  7.26639505E-03                    1_GWF-(1,26544)  3.37991855E-04                    1_GWF-(1,14800)
        278          6         28  8.91040640E-03                    1_GWF-(1,26486)  2.20000532E-04                    1_GWF-(1,14800)
        279          6         29  8.23567175E-03                    1_GWF-(1,26487)  5.24884962E-04                    1_GWF-(1,14801)
        280          6         30  6.58280757E-03                    1_GWF-(1,26420)  6.18610607E-04                    1_GWF-(1,14800)
        281          6         31  4.55680213E-03                    1_GWF-(1,20911)  6.46959321E-04                    1_GWF-(1,14801)
        282          6         32 -4.73692396E-03                    1_GWF-(1,26672)  5.95551723E-04                    1_GWF-(1,14800)
        283          6         33 -4.43362267E-03                    1_GWF-(1,26665)  5.91814509E-04                    1_GWF-(1,14801)
        284          6         34 -5.27338572E-03                    1_GWF-(1,26422)  5.19000438E-04                    1_GWF-(1,14800)
        285          6         35 -6.76281467E-03                    1_GWF-(1,26350)  4.42881438E-04                    1_GWF-(1,14801)
        286          6         36 -7.88348679E-03                    1_GWF-(1,26422)  2.94917792E-04                    1_GWF-(1,14800)
        287          6         37 -8.55080022E-03                    1_GWF-(1,26350) -3.08267558E-04                    1_GWF-(1,11430)
        288          6         38 -8.35420223E-03                    1_GWF-(1,26422)  2.32243411E-04                    1_GWF-(1,15941)
        289          6         39 -6.26987293E-03                    1_GWF-(1,20590)  3.02406086E-04                    1_GWF-(1,14800)
        290          6         40 -5.81170578E-03                    1_GWF-(1,20592)  4.58805925E-04                    1_GWF-(1,14801)
        291          6         41 -5.55534445E-03                    1_GWF-(1,20612)  4.93540339E-04                    1_GWF-(1,14800)
        292          6         42  3.85217712E-03                    1_GWF-(1,26420)  5.46935228E-04                    1_GWF-(1,14801)
        293          6         43  5.28162718E-03                    1_GWF-(1,26421)  5.67819679E-04                    1_GWF-(1,14800)
        294          6         44  4.63022077E-03                    1_GWF-(1,26348)  5.99597302E-04                    1_GWF-(1,14801)
        295          6         45  5.03634593E-03                    1_GWF-(1,26218)  5.69154563E-04                    1_GWF-(1,14800)
        296          6         46  3.94109325E-03                    1_GWF-(1,20618)  6.06223196E-04                    1_GWF-(1,14801)
        297          6         47  3.07397975E-03                    1_GWF-(1,20738)  5.60981383E-04                    1_GWF-(1,14800)
        298          6         48  2.70418707E-03                    1_GWF-(1,26397)  4.96823929E-04                    1_GWF-(1,14801)
        299          6         49 -2.36412141E-03                    1_GWF-(1,26419)  3.80758402E-04                    1_GWF-(1,14800)
        300          6         50 -2.36600857E-03                    1_GWF-(1,26218)  3.79375845E-04                    1_GWF-(1,14801)
        301          7          1 -1.54287332E-03                    1_GWF-(1,26217) -3.56948783E-04                    1_GWF-(1,14801)
        302          7          2 -2.49867913E-03                    1_GWF-(1,26218)  4.42290642E-04                    1_GWF-(1,14801)
        303          7          3 -2.48045618E-03                    1_GWF-(1,26589)  4.88329747E-04                    1_GWF-(1,14800)
        304          7          4 -2.58512164E-03                    1_GWF-(1,26486)  5.19749517E-04                    1_GWF-(1,14801)
        305          7          5 -2.78874358E-03                    1_GWF-(1,26544)  4.86538085E-04                    1_GWF-(1,14800)
        306          7          6 -3.52701938E-03                    1_GWF-(1,26218)  4.95035117E-04                    1_GWF-(1,14801)
        307          7          7 -2.89277532E-03                    1_GWF-(1,26217)  4.47821731E-04                    1_GWF-(1,14800)
        308          7          8 -3.02241937E-03                    1_GWF-(1,26421)  4.07823755E-04                    1_GWF-(1,14801)
        309          7          9  2.28229663E-03                    1_GWF-(1,20708)  3.52199841E-04                    1_GWF-(1,14800)
        310          7         10  2.91532497E-03                    1_GWF-(1,20614)  3.18924415E-04                    1_GWF-(1,14801)
        311          7         11  2.88429706E-03                    1_GWF-(1,20605)  2.11880358E-04                    1_GWF-(1,14800)
        312          7         12  3.12378366E-03                    1_GWF-(1,26544) -1.23330572E-04                    1_GWF-(1,15940)
        313          7         13  4.31065888E-03                    1_GWF-(1,26422) -1.47681269E-04                    1_GWF-(1,11430)
        314          7         14  4.27316876E-03                    1_GWF-(1,26350)  1.48900301E-04                    1_GWF-(1,11430)
        315          7         15  3.78105672E-03                    1_GWF-(1,26422)  1.94447047E-04                    1_GWF-(1,14801)
        316          7         16  3.09092148E-03                    1_GWF-(1,26350)  2.17847138E-04                    1_GWF-(1,14800)
        317          7         17  2.75494043E-03                    1_GWF-(1,26486)  2.13376970E-04                    1_GWF-(1,14801)
        318          7         18  2.18321835E-03                    1_GWF-(1,26544)  1.22165676E-04                    1_GWF-(1,14800)
        319          7         19  2.87451776E-03                    1_GWF-(1,26622) -1.19431780E-04                    1_GWF-(1,11430)
        320          7         20  2.73068379E-03                    1_GWF-(1,26623)  1.86609440E-04                    1_GWF-(1,14801)
        321          7         21 -2.26927439E-03                    1_GWF-(1,26422)  2.17331195E-04                    1_GWF-(1,14800)
        322          7         22 -2.00276228E-03                    1_GWF-(1,20229)  2.23566365E-04                    1_GWF-(1,14801)
        323          7         23 -1.49316151E-03                    1_GWF-(1,26422)  2.23724542E-04                    1_GWF-(1,14800)
        324          7         24 -1.30318406E-03                    1_GWF-(1,22914)  2.13363899E-04                    1_GWF-(1,14801)
        325          7         25  1.65433412E-03                    1_GWF-(1,20218) -1.80321392E-04                    1_GWF-(1,14801)
        326          7         26  1.15281482E-03                    1_GWF-(1,20216) -1.46945550E-04                    1_GWF-(1,14800)
        327          7         27 -1.22669100E-03                    1_GWF-(1,26487) -9.87309754E-05                    1_GWF-(1,14801)
        328          7         28  1.69428037E-03                    1_GWF-(1,26487) -6.10845842E-05                    1_GWF-(1,11430)
        329          7         29 -1.97556997E-03                    1_GWF-(1,26487)  7.91256722E-05                    1_GWF-(1,11430)
        330          7         30  1.70492119E-03                    1_GWF-(1,26487)  1.06805085E-04                    1_GWF-(1,14800)
        331          7         31 -1.41942841E-03                    1_GWF-(1,26487)  1.20928181E-04                    1_GWF-(1,14801)
        332          7         32  1.15985585E-03                    1_GWF-(1,26648)  8.63134189E-05                    1_GWF-(1,14800)
        333          7         33  1.43670715E-03                    1_GWF-(1,26649)  4.42736843E-05                    1_GWF-(1,14801)
        334          7         34  1.79877844E-03                    1_GWF-(1,26622) -6.32839523E-05                    1_GWF-(1,11430)
        335          7         35  1.85413170E-03                    1_GWF-(1,26543) -7.61262974E-05                    1_GWF-(1,14801)
        336          7         36  1.44382539E-03                    1_GWF-(1,26588) -9.01867593E-05                    1_GWF-(1,14800)
        337          7         37 -9.89405804E-04                    1_GWF-(1,26588) -9.18375205E-05                    1_GWF-(1,14801)
        338          7         38  1.13095258E-03                    1_GWF-(1,26663) -7.47451898E-05                    1_GWF-(1,14800)
        339          7         39 -1.23139484E-03                    1_GWF-(1,26666) -3.70854289E-05                    1_GWF-(1,14801)
        340          7         40 -1.63963820E-03                    1_GWF-(1,26665) -5.05905881E-05                    1_GWF-(1,11430)
        341          7         41  1.13646961E-03                    1_GWF-(1,26665) -5.81686040E-05                    1_GWF-(1,14800)
        342          7         42  8.96308018E-04                    1_GWF-(1,26666) -9.47170328E-05                    1_GWF-(1,14801)
        343          7         43 -1.06309088E-03                    1_GWF-(1,26217) -1.06163171E-04                    1_GWF-(1,14800)
        344          7         44  9.71256756E-04                    1_GWF-(1,20216) -1.19855415E-04                    1_GWF-(1,14801)
        345          7         45  9.74345092E-04                    1_GWF-(1,20917) -1.45613001E-04                    1_GWF-(1,14800)
        346          7         46  8.22114526E-04                    1_GWF-(1,20232) -1.47716232E-04                    1_GWF-(1,14801)
        347          7         47  8.54118539E-04                    1_GWF-(1,26218) -1.16783826E-04                    1_GWF-(1,14800)
        348          7         48  1.27780909E-03                    1_GWF-(1,26217) -1.27107398E-04                    1_GWF-(1,14801)
        349          7         49  1.42940960E-03                    1_GWF-(1,26218) -1.15261847E-04                    1_GWF-(1,14800)
        350          7         50  1.16798681E-03                    1_GWF-(1,26217) -1.24938685E-04                    1_GWF-(1,14801)
        351          8          1 -6.31216683E-03                    1_GWF-(1,11439) -7.72101566E-05                    1_GWF-(1,14800)
        352          8          2 -2.32133530E-03                    1_GWF-(1,11440) -1.18532790E-04                    1_GWF-(1,14801)
        353          8          3  2.45809167E-03                    1_GWF-(1,11439)  1.13478250E-04                    1_GWF-(1,14801)
        354          8          4 -1.51987248E-03                    1_GWF-(1,11439) -1.32878906E-04                    1_GWF-(1,14801)
        355          8          5 -2.52594070E-03                    1_GWF-(1,11440) -1.18714084E-04                    1_GWF-(1,14800)
        356          8          6  1.92626789E-03                    1_GWF-(1,11440) -9.99200335E-05                    1_GWF-(1,14801)
        357          8          7  1.12454042E-03                    1_GWF-(1,11441) -9.03221646E-05                    1_GWF-(1,14800)
        358          8          8  7.97219845E-04                    1_GWF-(1,15763) -8.86023400E-05                    1_GWF-(1,14801)
        359          8          9  1.02536679E-03                    1_GWF-(1,11440) -5.38713563E-05                    1_GWF-(1,14800)
        360          8         10  8.45927441E-04                    1_GWF-(1,11482) -2.69032345E-05                    1_GWF-(1,14801)
        361          8         11  1.03502865E-03                    1_GWF-(1,26665) -1.73172262E-05                    1_GWF-(1,15940)
        362          8         12 -8.86145873E-04                    1_GWF-(1,26665) -3.98197850E-05                    1_GWF-(1,14800)
        363          8         13 -7.31248196E-04                    1_GWF-(1,26666) -5.64670932E-05                    1_GWF-(1,14801)
        364          8         14 -7.42513180E-04                    1_GWF-(1,15759) -6.27460513E-05                    1_GWF-(1,14800)
        365          8         15 -7.78622334E-04                    1_GWF-(1,26350) -5.70453878E-05                    1_GWF-(1,14801)
        366          8         16 -7.49060736E-04                    1_GWF-(1,26543) -3.08958682E-05                    1_GWF-(1,11430)
        367          8         17 -1.00160497E-03                    1_GWF-(1,26622)  1.93099403E-05                    1_GWF-(1,14801)
        368          8         18 -9.06514743E-04                    1_GWF-(1,26649)  4.79275249E-05                    1_GWF-(1,14800)
        369          8         19 -8.90607461E-04                    1_GWF-(1,11428)  6.56258118E-05                    1_GWF-(1,14801)
        370          8         20  8.77076475E-04                    1_GWF-(1,11428)  5.55799114E-05                    1_GWF-(1,14800)
        371          8         21 -8.27137250E-04                    1_GWF-(1,26622) -3.28005739E-05                    1_GWF-(1,14800)
        372          8         22 -9.30129722E-04                    1_GWF-(1,26623) -2.88332286E-05                    1_GWF-(1,11430)
        373          8         23  9.13944615E-04                    1_GWF-(1,26588) -4.71442577E-05                    1_GWF-(1,14801)
        374          8         24 -5.76610552E-04                    1_GWF-(1,11438) -6.64953163E-05                    1_GWF-(1,14800)
        375          8         25 -7.76623460E-04                    1_GWF-(1,11428)  7.21790314E-05                    1_GWF-(1,14800)
        376          8         26  8.72821039E-04                    1_GWF-(1,26543)  7.75981755E-05                    1_GWF-(1,14801)
        377          8         27  7.91812098E-04                    1_GWF-(1,26542)  6.18384009E-05                    1_GWF-(1,14800)
        378          8         28  9.96337854E-04                    1_GWF-(1,26486) -2.25204520E-05                    1_GWF-(1,11430)
        379          8         29  1.04382585E-03                    1_GWF-(1,26487)  4.49864742E-05                    1_GWF-(1,14801)
        380          8         30  8.97904853E-04                    1_GWF-(1,26420)  7.24804380E-05                    1_GWF-(1,14800)
        381          8         31 -7.01598710E-04                    1_GWF-(1,11428)  7.93901790E-05                    1_GWF-(1,14801)
        382          8         32 -5.50250257E-04                    1_GWF-(1,26623)  7.20800411E-05                    1_GWF-(1,14800)
        383          8         33 -4.44133788E-04                    1_GWF-(1,26665)  6.99789961E-05                    1_GWF-(1,14801)
        384          8         34 -6.60486064E-04                    1_GWF-(1,11428)  6.03299049E-05                    1_GWF-(1,14800)
        385          8         35 -7.77989920E-04                    1_GWF-(1,26350)  5.32972442E-05                    1_GWF-(1,14801)
        386          8         36 -9.77312525E-04                    1_GWF-(1,26422)  3.82840173E-05                    1_GWF-(1,14800)
        387          8         37 -1.02966058E-03                    1_GWF-(1,26350) -2.29435048E-05                    1_GWF-(1,11430)
        388          8         38 -1.02286182E-03                    1_GWF-(1,26422)  2.50253568E-05                    1_GWF-(1,15941)
        389          8         39 -7.61849372E-04                    1_GWF-(1,26350)  3.30312804E-05                    1_GWF-(1,14800)
        390          8         40 -6.12696405E-04                    1_GWF-(1,20592)  5.03214452E-05                    1_GWF-(1,14801)
        391          8         41 -6.02696821E-04                    1_GWF-(1,20614)  5.66500650E-05                    1_GWF-(1,14800)
        392          8         42  5.05109705E-04                    1_GWF-(1,26350)  6.35630423E-05                    1_GWF-(1,14801)
        393          8         43  6.23313465E-04                    1_GWF-(1,26421)  6.48294855E-05                    1_GWF-(1,14800)
        394          8         44  5.55357320E-04                    1_GWF-(1,26350)  6.81706484E-05                    1_GWF-(1,14801)
        395          8         45  5.28519809E-04                    1_GWF-(1,26218)  6.41670021E-05                    1_GWF-(1,14800)
        396          8         46  3.96724541E-04                    1_GWF-(1,26544)  6.51970739E-05                    1_GWF-(1,14801)
        397          8         47  3.53808669E-04                    1_GWF-(1,11428)  5.81225819E-05                    1_GWF-(1,14800)
        398          8         48 -3.03227628E-04                    1_GWF-(1,11428)  5.46919786E-05                    1_GWF-(1,14801)
        399          8         49  2.71249564E-04                    1_GWF-(1,26588)  4.46120448E-05                    1_GWF-(1,14800)
        400          8         50  2.44146844E-04                    1_GWF-(1,11428) -4.39307474E-05                    1_GWF-(1,14800)
        401          9          1 -3.03561515E-04                    1_GWF-(1,11428)  4.67579614E-05                    1_GWF-(1,14800)
        402          9          2 -2.79740289E-04                    1_GWF-(1,26218)  4.94868759E-05                    1_GWF-(1,14801)
        403          9          3 -3.07023251E-04                    1_GWF-(1,26589)  5.17560035E-05                    1_GWF-(1,14800)
        404          9          4 -3.56851340E-04                    1_GWF-(1,11428)  5.60361576E-05                    1_GWF-(1,14801)
        405          9          5 -3.59892152E-04                    1_GWF-(1,26544)  5.65374494E-05                    1_GWF-(1,14800)
        406          9          6 -4.03629432E-04                    1_GWF-(1,26218)  5.78393272E-05                    1_GWF-(1,14801)
        407          9          7 -3.53145731E-04                    1_GWF-(1,26348)  5.14435222E-05                    1_GWF-(1,14800)
        408          9          8 -3.66492431E-04                    1_GWF-(1,26421)  4.67035122E-05                    1_GWF-(1,14801)
        409          9          9  2.57684095E-04                    1_GWF-(1,20708)  4.03692000E-05                    1_GWF-(1,14800)
        410          9         10 -3.38947720E-04                    1_GWF-(1,26486)  3.20800715E-05                    1_GWF-(1,14801)
        411          9         11  5.00866899E-04                    1_GWF-(1,26486)  1.65588599E-05                    1_GWF-(1,10650)
        412          9         12  4.58546962E-04                    1_GWF-(1,26544)  1.74099440E-05                    1_GWF-(1,14800)
        413          9         13  3.91313850E-04                    1_GWF-(1,26543)  2.58104508E-05                    1_GWF-(1,14801)
        414          9         14  4.08537792E-04                    1_GWF-(1,26422)  1.94330011E-05                    1_GWF-(1,10652)
        415          9         15  4.48303766E-04                    1_GWF-(1,26420) -1.29954795E-05                    1_GWF-(1,15940)
        416          9         16  4.55555960E-04                    1_GWF-(1,26422)  1.01017012E-05                    1_GWF-(1,15940)
        417          9         17  3.72489063E-04                    1_GWF-(1,26350)  1.32394806E-05                    1_GWF-(1,14800)
        418          9         18  2.97087902E-04                    1_GWF-(1,26486)  2.10563662E-05                    1_GWF-(1,14801)
        419          9         19 -2.49257809E-04                    1_GWF-(1,26422)  2.66322598E-05                    1_GWF-(1,14800)
        420          9         20  3.11023133E-04                    1_GWF-(1,26623)  2.36647526E-05                    1_GWF-(1,14801)
        421          9         21  2.87399843E-04                    1_GWF-(1,26622)  9.58578247E-06                    1_GWF-(1,14800)
        422          9         22  2.78687655E-04                    1_GWF-(1,26649)  1.03787864E-05                    1_GWF-(1,14800)
        423          9         23 -2.38913755E-04                    1_GWF-(1,26420)  2.20254002E-05                    1_GWF-(1,14801)
        424          9         24 -1.81882790E-04                    1_GWF-(1,26622)  2.61905664E-05                    1_GWF-(1,14800)
        425          9         25 -2.18470037E-04                    1_GWF-(1,11428)  2.49603864E-05                    1_GWF-(1,14801)
        426          9         26  1.58958551E-04                    1_GWF-(1,26350) -2.35415200E-05                    1_GWF-(1,14801)
        427          9         27  1.23039428E-04                    1_GWF-(1,26422) -2.07249598E-05                    1_GWF-(1,14800)
        428          9         28 -2.02862905E-04                    1_GWF-(1,11428) -2.05814178E-05                    1_GWF-(1,14801)
        429          9         29  1.75069757E-04                    1_GWF-(1,11428) -1.84122494E-05                    1_GWF-(1,14800)
        430          9         30  1.24192229E-04                    1_GWF-(1,20142)  1.65385850E-05                    1_GWF-(1,14800)
        431          9         31 -1.78111898E-04                    1_GWF-(1,11428)  1.46273376E-05                    1_GWF-(1,14801)
        432          9         32  1.94672584E-04                    1_GWF-(1,26665)  9.26294428E-06                    1_GWF-(1,14800)
        433          9         33  1.85484700E-04                    1_GWF-(1,26666)  3.53755630E-06                    1_GWF-(1,14801)
        434          9         34  1.72373443E-04                    1_GWF-(1,26665) -5.67008631E-06                    1_GWF-(1,11430)
        435          9         35 -2.06794887E-04                    1_GWF-(1,26665) -1.09352621E-05                    1_GWF-(1,14801)
        436          9         36  1.21004847E-04                    1_GWF-(1,26422) -1.13281295E-05                    1_GWF-(1,14800)
        437          9         37  1.21086703E-04                    1_GWF-(1,26420) -1.00948303E-05                    1_GWF-(1,14801)
        438          9         38 -1.65124890E-04                    1_GWF-(1,26588) -7.88527553E-06                    1_GWF-(1,14800)
        439          9         39 -1.40573223E-04                    1_GWF-(1,26543) -3.52859945E-06                    1_GWF-(1,14801)
        440          9         40 -1.39238992E-04                    1_GWF-(1,26588) -4.20602497E-06                    1_GWF-(1,11430)
        441          9         41  1.16673896E-04                    1_GWF-(1,26588) -7.59194870E-06                    1_GWF-(1,14800)
        442          9         42 -9.34618503E-05                    1_GWF-(1,26218) -1.23355859E-05                    1_GWF-(1,14801)
        443          9         43 -1.14613344E-04                    1_GWF-(1,26217) -1.29164564E-05                    1_GWF-(1,14800)
        444          9         44  1.17211458E-04                    1_GWF-(1,20216) -1.41892772E-05                    1_GWF-(1,14801)
        445          9         45 -1.36678079E-04                    1_GWF-(1,11440) -1.59740125E-05                    1_GWF-(1,14800)
        446          9         46  1.75224753E-04                    1_GWF-(1,11440) -1.63211626E-05                    1_GWF-(1,14801)
        447          9         47  1.07948410E-04                    1_GWF-(1,11439)  1.36867793E-05                    1_GWF-(1,14801)
        448          9         48 -1.94261616E-04                    1_GWF-(1,11439) -1.45096316E-05                    1_GWF-(1,14801)
        449          9         49  1.50750994E-04                    1_GWF-(1,26218) -1.05782363E-05                    1_GWF-(1,14800)
        450          9         50  3.26410168E-04                    1_GWF-(1,11439) -1.26715178E-05                    1_GWF-(1,14801)
        451         10          1 -3.43796185E-04                    1_GWF-(1,11439) -9.53845423E-06                    1_GWF-(1,14800)
        452         10          2 -1.22189821E-04                    1_GWF-(1,26218) -1.01490262E-05                    1_GWF-(1,14801)
        453         10          3  1.79304578E-04                    1_GWF-(1,11439)  3.81136087E-06                    1_GWF-(1,14801)
        454         10          4  1.22740803E-04                    1_GWF-(1,26543) -4.24920705E-06                    1_GWF-(1,14800)
        455         10          5 -1.36950728E-04                    1_GWF-(1,11440) -1.05749649E-05                    1_GWF-(1,14801)
        456         10          6 -9.37451898E-05                    1_GWF-(1,20232) -1.16056110E-05                    1_GWF-(1,14800)
        457         10          7  1.09830742E-04                    1_GWF-(1,11440) -1.14512229E-05                    1_GWF-(1,14801)
        458         10          8 -1.15297700E-04                    1_GWF-(1,11440) -1.07214338E-05                    1_GWF-(1,14800)
        459         10          9  1.03172829E-04                    1_GWF-(1,26217) -1.00716208E-05                    1_GWF-(1,14801)
        460         10         10 -7.52881433E-05                    1_GWF-(1,11428) -9.10286256E-06                    1_GWF-(1,14800)
        461         10         11  7.38764288E-05                    1_GWF-(1,26487) -8.17288557E-06                    1_GWF-(1,14801)
        462         10         12 -8.58517390E-05                    1_GWF-(1,11482) -5.65253242E-06                    1_GWF-(1,14800)
        463         10         13 -1.17619379E-04                    1_GWF-(1,26420)  2.23244656E-06                     1_GWF-(1,9291)
        464         10         14 -1.30837493E-04                    1_GWF-(1,26487) -4.54583629E-06                    1_GWF-(1,14801)
        465         10         15 -8.29087652E-05                    1_GWF-(1,26420) -7.38981159E-06                    1_GWF-(1,14800)
        466         10         16 -9.03565780E-05                    1_GWF-(1,26218) -7.99041029E-06                    1_GWF-(1,14801)
        467         10         17 -5.72895981E-05                    1_GWF-(1,26649)  6.50489360E-06                    1_GWF-(1,14801)
        468         10         18 -9.97705482E-05                    1_GWF-(1,26622)  3.87537352E-06                    1_GWF-(1,14800)
        469         10         19 -9.22688342E-05                    1_GWF-(1,11428) -2.20850222E-06                    1_GWF-(1,11430)
        470         10         20 -1.21091668E-04                    1_GWF-(1,26588)  5.13550003E-06                    1_GWF-(1,14801)
        471         10         21 -9.90310344E-05                    1_GWF-(1,26543) -7.35592068E-06                    1_GWF-(1,14801)
        472         10         22 -1.00824452E-04                    1_GWF-(1,11428) -8.32825904E-06                    1_GWF-(1,14800)
        473         10         23  7.37297789E-05                    1_GWF-(1,26588) -7.91483133E-06                    1_GWF-(1,14801)
        474         10         24  6.81621636E-05                    1_GWF-(1,11428) -6.50211389E-06                    1_GWF-(1,14800)
        475         10         25  9.63193918E-05                    1_GWF-(1,26588)  3.38198883E-06                    1_GWF-(1,14800)
        476         10         26  1.20216368E-04                    1_GWF-(1,26543)  2.44083626E-06                    1_GWF-(1,14800)
        477         10         27  1.31309487E-04                    1_GWF-(1,26588)  7.07149708E-06                    1_GWF-(1,14801)
        478         10         28  8.58773489E-05                    1_GWF-(1,26589)  8.50070390E-06                    1_GWF-(1,14800)
        479         10         29  6.17062059E-05                    1_GWF-(1,20218)  9.66383948E-06                    1_GWF-(1,14801)
        480         10         30  6.80011407E-05                    1_GWF-(1,11428)  9.94991097E-06                    1_GWF-(1,14800)
        481         10         31 -8.83064750E-05                    1_GWF-(1,11428)  1.00404257E-05                    1_GWF-(1,14801)
        482         10         32 -7.34900178E-05                    1_GWF-(1,26623)  8.93277655E-06                    1_GWF-(1,14800)
        483         10         33 -5.68151206E-05                    1_GWF-(1,26544)  8.54009167E-06                    1_GWF-(1,14801)
        484         10         34 -7.50183588E-05                    1_GWF-(1,11428)  7.23048286E-06                    1_GWF-(1,14800)
        485         10         35 -9.06390362E-05                    1_GWF-(1,26350)  6.19501389E-06                    1_GWF-(1,14801)
        486         10         36 -1.15684211E-04                    1_GWF-(1,26422)  4.52097166E-06                    1_GWF-(1,14800)
        487         10         37 -1.24724971E-04                    1_GWF-(1,26350)  2.74822630E-06                    1_GWF-(1,14801)
        488         10         38 -1.15147840E-04                    1_GWF-(1,26422)  2.78482162E-06                    1_GWF-(1,15941)
        489         10         39 -8.82520091E-05                    1_GWF-(1,26544)  4.02801987E-06                    1_GWF-(1,14800)
        490         10         40 -8.44429045E-05                    1_GWF-(1,26486)  5.57417723E-06                    1_GWF-(1,14801)
        491         10         41 -8.10936024E-05                    1_GWF-(1,26623)  3.75212846E-06                    1_GWF-(1,14800)
        492         10         42  6.94393784E-05                    1_GWF-(1,26487)  2.14318649E-06                    1_GWF-(1,11430)
        493         10         43  9.66212898E-05                    1_GWF-(1,26420)  4.57778861E-06                    1_GWF-(1,14801)
        494         10         44  9.87088805E-05                    1_GWF-(1,26422)  6.18519090E-06                    1_GWF-(1,14800)
        495         10         45  7.84110808E-05                    1_GWF-(1,26350)  7.12191462E-06                    1_GWF-(1,14801)
        496         10         46  5.42503169E-05                    1_GWF-(1,26588)  6.72862385E-06                    1_GWF-(1,14800)
        497         10         47  4.68430874E-05                    1_GWF-(1,26623)  6.40947310E-06                    1_GWF-(1,14801)
        498         10         48  4.57672576E-05                    1_GWF-(1,26582)  5.98850949E-06                    1_GWF-(1,14800)
        499         10         49 -4.16832450E-05                    1_GWF-(1,11428)  5.78414601E-06                    1_GWF-(1,14801)
        500         10         50  3.67614536E-05                    1_GWF-(1,11428) -4.81429706E-06                    1_GWF-(1,14801)
        501         11          1 -3.11488264E-05                    1_GWF-(1,26218)  9.20899119E-06                    1_GWF-(1,14801)
        502         11          2 -3.32229585E-05                    1_GWF-(1,26543)  6.59582822E-06                    1_GWF-(1,14800)
        503         11          3 -4.16271203E-05                    1_GWF-(1,26586)  5.27991356E-06                    1_GWF-(1,14801)
        504         11          4 -5.37551704E-05                    1_GWF-(1,26623)  4.32405233E-06                    1_GWF-(1,14800)
        505         11          5 -5.61662085E-05                    1_GWF-(1,26487)  3.19247436E-06                    1_GWF-(1,14801)
        506         11          6 -6.13950162E-05                    1_GWF-(1,26486)  2.54693998E-06                    1_GWF-(1,14801)
        507         11          7 -6.05901996E-05                    1_GWF-(1,26487)  4.26455003E-06                    1_GWF-(1,14800)
        508         11          8 -4.73159613E-05                    1_GWF-(1,26486)  5.15945989E-06                    1_GWF-(1,14801)
        509         11          9 -3.85649889E-05                    1_GWF-(1,26487)  5.36976080E-06                    1_GWF-(1,14800)
        510         11         10 -4.35750773E-05                    1_GWF-(1,11428)  5.02807165E-06                    1_GWF-(1,14801)
        511         11         11  4.24623058E-05                    1_GWF-(1,26486)  3.38112226E-06                    1_GWF-(1,14800)
        512         11         12  4.70088962E-05                    1_GWF-(1,26544)  1.95714605E-06                    1_GWF-(1,14801)
        513         11         13  5.77266957E-05                    1_GWF-(1,26422)  1.30855823E-06                    1_GWF-(1,15940)
        514         11         14  5.59785675E-05                    1_GWF-(1,26350)  1.90311193E-06                    1_GWF-(1,10652)
        515         11         15  4.15092477E-05                    1_GWF-(1,26486)  2.17419214E-06                    1_GWF-(1,14801)
        516         11         16  3.59431712E-05                    1_GWF-(1,26487)  1.51857120E-06                    1_GWF-(1,14800)
        517         11         17 -3.24036264E-05                    1_GWF-(1,26623)  9.49483380E-07                    1_GWF-(1,15941)
        518         11         18  2.81142664E-05                    1_GWF-(1,26588)  2.12586768E-06                    1_GWF-(1,10651)
        519         11         19 -3.53840090E-05                    1_GWF-(1,26422)  2.88634478E-06                    1_GWF-(1,14800)
        520         11         20  3.63662440E-05                    1_GWF-(1,26623)  3.58145943E-06                    1_GWF-(1,14801)
        521         11         21 -3.11363630E-05                    1_GWF-(1,26422)  3.43840456E-06                    1_GWF-(1,14800)
        522         11         22 -3.07643394E-05                    1_GWF-(1,11428)  3.17528921E-06                    1_GWF-(1,14801)
        523         11         23 -2.20744629E-05                    1_GWF-(1,26623)  2.52869417E-06                    1_GWF-(1,14800)
        524         11         24 -3.66031335E-05                    1_GWF-(1,26588)  1.20075773E-06                    1_GWF-(1,14801)
        525         11         25 -3.93215819E-05                    1_GWF-(1,26543)  9.66894433E-07                    1_GWF-(1,10651)
        526         11         26 -3.39073409E-05                    1_GWF-(1,26588) -1.97841660E-06                    1_GWF-(1,14801)
        527         11         27 -2.09201377E-05                    1_GWF-(1,26589) -2.36325737E-06                    1_GWF-(1,14800)
        528         11         28 -2.60364936E-05                    1_GWF-(1,11428) -2.54799130E-06                    1_GWF-(1,14801)
        529         11         29 -1.89663319E-05                    1_GWF-(1,26543) -1.94574678E-06                    1_GWF-(1,14800)
        530         11         30  2.32115651E-05                    1_GWF-(1,26665)  7.53266620E-07                    1_GWF-(1,14800)
        531         11         31  2.54651737E-05                    1_GWF-(1,26588)  8.31808421E-07                    1_GWF-(1,14800)
        532         11         32  3.03937266E-05                    1_GWF-(1,26665)  1.65185249E-06                    1_GWF-(1,14801)
        533         11         33  1.89869149E-05                    1_GWF-(1,26666)  1.72821339E-06                    1_GWF-(1,14800)
        534         11         34 -2.23840680E-05                    1_GWF-(1,11428)  1.83373478E-06                    1_GWF-(1,14801)
        535         11         35 -1.34815829E-05                    1_GWF-(1,26665) -2.01838185E-06                    1_GWF-(1,14801)
        536         11         36  1.53189495E-05                    1_GWF-(1,26422) -1.75132039E-06                    1_GWF-(1,14800)
        537         11         37 -1.83785609E-05                    1_GWF-(1,11428) -1.65754924E-06                    1_GWF-(1,14801)
        538         11         38 -1.52447748E-05                    1_GWF-(1,20229) -1.66540036E-06                    1_GWF-(1,14800)
        539         11         39 -1.28570633E-05                    1_GWF-(1,20225) -1.64270386E-06                    1_GWF-(1,14801)
        540         11         40 -1.12376097E-05                    1_GWF-(1,11428) -1.46080776E-06                    1_GWF-(1,14800)
        541         11         41  1.56142884E-05                    1_GWF-(1,11428) -1.45272139E-06                    1_GWF-(1,14801)
        542         11         42  1.38515947E-05                    1_GWF-(1,26586) -1.32576513E-06                    1_GWF-(1,14800)
        543         11         43  1.80448842E-05                    1_GWF-(1,26623) -7.46844592E-07                    1_GWF-(1,14801)
        544         11         44  1.70798836E-05                    1_GWF-(1,26622) -6.96097784E-07                    1_GWF-(1,14801)
        545         11         45  1.37043743E-05                    1_GWF-(1,26649) -1.53575005E-06                    1_GWF-(1,14800)
        546         11         46  1.42989629E-05                    1_GWF-(1,11440) -1.82938212E-06                    1_GWF-(1,14801)
        547         11         47  1.50712404E-05                    1_GWF-(1,11428)  1.62605318E-06                    1_GWF-(1,14801)
        548         11         48 -1.98936667E-05                    1_GWF-(1,11439) -1.65030113E-06                    1_GWF-(1,14801)
        549         11         49  1.73468570E-05                    1_GWF-(1,26218) -1.31951756E-06                    1_GWF-(1,14800)
        550         11         50  2.81158055E-05                    1_GWF-(1,11439) -1.46493057E-06                    1_GWF-(1,14801)
        551         12          1 -2.91856107E-05                    1_GWF-(1,11439) -1.31815698E-06                    1_GWF-(1,14800)
        552         12          2 -1.51321973E-05                    1_GWF-(1,26218) -1.32873206E-06                    1_GWF-(1,14801)
        553         12          3  1.79788147E-05                    1_GWF-(1,11439)  6.53897507E-07                    1_GWF-(1,14801)
        554         12          4 -1.84112376E-05                    1_GWF-(1,26487) -3.02239678E-07                    1_GWF-(1,11430)
        555         12          5 -1.52408480E-05                    1_GWF-(1,26420) -1.02519921E-06                    1_GWF-(1,14801)
        556         12          6  1.25557088E-05                    1_GWF-(1,11428) -1.18609359E-06                    1_GWF-(1,14800)
        557         12          7 -1.31833794E-05                    1_GWF-(1,11428) -1.26593681E-06                    1_GWF-(1,14801)
        558         12          8  1.13110913E-05                    1_GWF-(1,26218) -1.28258000E-06                    1_GWF-(1,14800)
        559         12          9  1.02770539E-05                    1_GWF-(1,26217) -1.16918240E-06                    1_GWF-(1,14801)
        560         12         10 -1.13237362E-05                    1_GWF-(1,11428) -8.56483194E-07                    1_GWF-(1,14800)
        561         12         11  1.01827279E-05                    1_GWF-(1,26487) -4.39180466E-07                    1_GWF-(1,14801)
        562         12         12  1.21135984E-05                    1_GWF-(1,26622) -4.82053851E-07                    1_GWF-(1,14801)
        563         12         13  1.14663793E-05                    1_GWF-(1,26649) -8.58347927E-07                    1_GWF-(1,14800)
        564         12         14  8.09562149E-06                    1_GWF-(1,26648) -9.49473695E-07                    1_GWF-(1,14801)
        565         12         15 -9.54861884E-06                    1_GWF-(1,26422) -1.00898056E-06                    1_GWF-(1,14800)
        566         12         16 -1.15746822E-05                    1_GWF-(1,11428) -8.34269185E-07                    1_GWF-(1,14801)
        567         12         17  9.92752212E-06                    1_GWF-(1,26588)  3.48770168E-07                    1_GWF-(1,14801)
        568         12         18 -1.13605309E-05                    1_GWF-(1,26623)  3.99847112E-07                    1_GWF-(1,14801)
        569         12         19 -1.16506543E-05                    1_GWF-(1,26665)  9.13153475E-07                    1_GWF-(1,14800)
        570         12         20 -1.49623918E-05                    1_GWF-(1,26588)  1.16829949E-06                    1_GWF-(1,14801)
        571         12         21  1.35406022E-05                    1_GWF-(1,11428) -1.16733815E-06                    1_GWF-(1,14801)
        572         12         22 -1.28696638E-05                    1_GWF-(1,11428) -1.07256769E-06                    1_GWF-(1,14800)
        573         12         23  8.70939276E-06                    1_GWF-(1,26588) -8.16940719E-07                    1_GWF-(1,14801)
        574         12         24  1.15367557E-05                    1_GWF-(1,26666) -3.77317240E-07                    1_GWF-(1,14800)
        575         12         25  1.27872643E-05                    1_GWF-(1,26622)  2.23923338E-07                    1_GWF-(1,14801)
        576         12         26  1.36892847E-05                    1_GWF-(1,26543)  8.27087274E-07                    1_GWF-(1,14800)
        577         12         27  1.25911008E-05                    1_GWF-(1,26588)  1.23894998E-06                    1_GWF-(1,14801)
        578         12         28 -1.02279303E-05                    1_GWF-(1,11428)  1.24190421E-06                    1_GWF-(1,14800)
        579         12         29  7.62567226E-06                    1_GWF-(1,20218)  1.32666241E-06                    1_GWF-(1,14801)
        580         12         30  8.16356341E-06                    1_GWF-(1,11428)  1.37886653E-06                    1_GWF-(1,14800)
        581         12         31 -1.13238280E-05                    1_GWF-(1,11428)  1.41486862E-06                    1_GWF-(1,14801)
        582         12         32 -7.67485154E-06                    1_GWF-(1,26623)  1.21010964E-06                    1_GWF-(1,14800)
        583         12         33 -6.43161582E-06                    1_GWF-(1,25801)  1.13644674E-06                    1_GWF-(1,14801)
        584         12         34 -9.42164243E-06                    1_GWF-(1,11428)  9.35771561E-07                    1_GWF-(1,14800)
        585         12         35 -1.20290650E-05                    1_GWF-(1,26420)  5.89548664E-07                    1_GWF-(1,14801)
        586         12         36 -1.36979219E-05                    1_GWF-(1,26487)  3.85433827E-07                    1_GWF-(1,10651)
        587         12         37 -1.29791754E-05                    1_GWF-(1,26420)  7.32100594E-07                    1_GWF-(1,14800)
        588         12         38 -9.65863012E-06                    1_GWF-(1,26487)  1.00339570E-06                    1_GWF-(1,14801)
        589         12         39 -9.10838767E-06                    1_GWF-(1,26486)  9.47864010E-07                    1_GWF-(1,14800)
        590         12         40 -8.75574479E-06                    1_GWF-(1,11428)  9.07699028E-07                    1_GWF-(1,14801)
        591         12         41  7.73539395E-06                    1_GWF-(1,26350)  6.64004774E-07                    1_GWF-(1,14800)
        592         12         42  9.37213047E-06                    1_GWF-(1,26422)  3.89481830E-07                    1_GWF-(1,14801)
        593         12         43  1.12069443E-05                    1_GWF-(1,26350) -3.08077821E-07                    1_GWF-(1,15940)
        594         12         44  1.24875507E-05                    1_GWF-(1,26422)  4.46226285E-07                    1_GWF-(1,14800)
        595         12         45  9.89148747E-06                    1_GWF-(1,26350)  5.68257521E-07                    1_GWF-(1,14801)
        596         12         46  1.01375443E-05                    1_GWF-(1,26486)  4.52260236E-07                    1_GWF-(1,14800)
        597         12         47  9.88655885E-06                    1_GWF-(1,26623)  2.74326639E-07                    1_GWF-(1,10650)
        598         12         48  8.46056494E-06                    1_GWF-(1,26622)  2.39910436E-07                    1_GWF-(1,14801)
        599         12         49  7.74961190E-06                    1_GWF-(1,26588)  3.56881865E-07                    1_GWF-(1,14800)
        600         12         50  5.35643077E-06                    1_GWF-(1,26543)  4.63451477E-07                    1_GWF-(1,14801)
        601         13          1 -5.32434159E-06                    1_GWF-(1,26543)  8.50007598E-07                    1_GWF-(1,14800)
        602         13          2 -9.73334574E-06                    1_GWF-(1,26588)  4.92033394E-07                    1_GWF-(1,14801)
        603         13          3 -8.79929485E-06                    1_GWF-(1,26589)  2.52242792E-07                    1_GWF-(1,10652)
        604         13          4 -9.03052405E-06                    1_GWF-(1,26588)  3.44175251E-07                    1_GWF-(1,14800)
        605         13          5 -8.26909548E-06                    1_GWF-(1,26543)  7.08020227E-07                    1_GWF-(1,14801)
        606         13          6 -8.06295974E-06                    1_GWF-(1,26544)  7.20337245E-07                    1_GWF-(1,14800)
        607         13          7 -7.41959825E-06                    1_GWF-(1,26486)  4.04771174E-07                    1_GWF-(1,14801)
        608         13          8 -6.45279453E-06                    1_GWF-(1,26487)  1.86260437E-07                    1_GWF-(1,10651)
        609         13          9  5.64950212E-06                    1_GWF-(1,26665)  4.83789024E-07                    1_GWF-(1,14800)
        610         13         10  5.11153085E-06                    1_GWF-(1,26588)  5.23923391E-07                    1_GWF-(1,14801)
        611         13         11  4.72534325E-06                    1_GWF-(1,26487)  2.59536511E-07                    1_GWF-(1,10652)
        612         13         12  5.62406306E-06                    1_GWF-(1,26420) -1.44450448E-07                    1_GWF-(1,15940)
        613         13         13  7.59055812E-06                    1_GWF-(1,26422)  2.98017855E-07                    1_GWF-(1,14801)
        614         13         14  7.96172520E-06                    1_GWF-(1,26350)  3.69338769E-07                    1_GWF-(1,14800)
        615         13         15  7.21867416E-06                    1_GWF-(1,26422)  4.20612871E-07                    1_GWF-(1,14801)
        616         13         16  5.50734585E-06                    1_GWF-(1,26420)  3.78625648E-07                    1_GWF-(1,14800)
        617         13         17  3.88209697E-06                    1_GWF-(1,26487)  3.09415407E-07                    1_GWF-(1,14801)
        618         13         18  4.79286059E-06                    1_GWF-(1,26486)  1.84043682E-07                    1_GWF-(1,10652)
        619         13         19  4.66989165E-06                    1_GWF-(1,26622)  1.30435895E-07                    1_GWF-(1,10652)
        620         13         20  4.86340966E-06                    1_GWF-(1,26623)  3.33857920E-07                    1_GWF-(1,14801)
        621         13         21 -3.30795773E-06                    1_GWF-(1,26486)  3.96328319E-07                    1_GWF-(1,14800)
        622         13         22 -2.94126062E-06                    1_GWF-(1,20229)  4.27010550E-07                    1_GWF-(1,14801)
        623         13         23 -2.85780460E-06                    1_GWF-(1,11438)  4.45653415E-07                    1_GWF-(1,14800)
        624         13         24 -2.83131336E-06                    1_GWF-(1,26588)  4.77043379E-07                    1_GWF-(1,14801)
        625         13         25 -3.51998961E-06                    1_GWF-(1,26543) -3.64701708E-07                    1_GWF-(1,14801)
        626         13         26 -3.34925448E-06                    1_GWF-(1,26622) -2.20957308E-07                    1_GWF-(1,14800)
        627         13         27 -3.43645538E-06                    1_GWF-(1,26666) -5.07321718E-08                    1_GWF-(1,15091)
        628         13         28 -3.35651897E-06                    1_GWF-(1,26665) -1.54465398E-07                    1_GWF-(1,14801)
        629         13         29  2.71373582E-06                    1_GWF-(1,26665) -2.68791373E-07                    1_GWF-(1,14800)
        630         13         30  2.38386949E-06                    1_GWF-(1,26663)  3.08590445E-07                    1_GWF-(1,14800)
        631         13         31  2.38979402E-06                    1_GWF-(1,11439)  3.22005208E-07                    1_GWF-(1,14801)
        632         13         32  2.10371101E-06                    1_GWF-(1,26543)  2.35503642E-07                    1_GWF-(1,14800)
        633         13         33  1.92844089E-06                    1_GWF-(1,26649)  1.52114485E-07                    1_GWF-(1,14801)
        634         13         34  2.66107549E-06                    1_GWF-(1,26622)  3.44305168E-08                     1_GWF-(1,9290)
        635         13         35 -2.07801731E-06                    1_GWF-(1,26622) -1.73141478E-07                    1_GWF-(1,14801)
        636         13         36 -1.90126634E-06                    1_GWF-(1,26623) -2.16719116E-07                    1_GWF-(1,14800)
        637         13         37  1.51849413E-06                    1_GWF-(1,26422) -2.12965275E-07                    1_GWF-(1,14801)
        638         13         38 -1.81822409E-06                    1_GWF-(1,20560) -2.14450751E-07                    1_GWF-(1,14800)
        639         13         39 -1.51696737E-06                    1_GWF-(1,20228) -2.18133092E-07                    1_GWF-(1,14801)
        640         13         40 -1.14011187E-06                    1_GWF-(1,20206) -1.95413841E-07                    1_GWF-(1,14800)
        641         13         41 -1.27660881E-06                    1_GWF-(1,19969) -1.76542175E-07                    1_GWF-(1,14801)
        642         13         42  1.40450621E-06                    1_GWF-(1,26586) -1.69716295E-07                    1_GWF-(1,14800)
        643         13         43  1.63240647E-06                    1_GWF-(1,11440) -1.80349633E-07                    1_GWF-(1,14801)
        644         13         44  1.57552836E-06                    1_GWF-(1,20229) -1.28331019E-07                    1_GWF-(1,14800)
        645         13         45  1.63109332E-06                    1_GWF-(1,26588) -5.32666077E-08                    1_GWF-(1,15091)
        646         13         46 -1.96628881E-06                    1_GWF-(1,26588) -1.06763824E-07                    1_GWF-(1,14801)
        647         13         47  1.85483469E-06                    1_GWF-(1,11439) -1.39269361E-07                    1_GWF-(1,14800)
        648         13         48 -2.14289647E-06                    1_GWF-(1,11439) -1.85015087E-07                    1_GWF-(1,14801)
        649         13         49 -2.11317862E-06                    1_GWF-(1,26623)  1.64953202E-07                    1_GWF-(1,14801)
        650         13         50  2.98194186E-06                    1_GWF-(1,11439) -1.19860918E-07                    1_GWF-(1,14801)
        651         14          1 -2.45762696E-06                    1_GWF-(1,11439) -1.08139883E-07                    1_GWF-(1,14800)
        652         14          2  2.70375766E-06                    1_GWF-(1,26623) -3.82750926E-08                    1_GWF-(1,10650)
        653         14          3  2.69292095E-06                    1_GWF-(1,11439) -8.30798887E-08                    1_GWF-(1,14801)
        654         14          4  1.74318321E-06                    1_GWF-(1,26649) -1.41878425E-07                    1_GWF-(1,14800)
        655         14          5 -1.63473118E-06                    1_GWF-(1,11440) -1.54528738E-07                    1_GWF-(1,14801)
        656         14          6  1.44974376E-06                    1_GWF-(1,11439) -1.29601599E-07                    1_GWF-(1,14800)
        657         14          7  1.26599891E-06                    1_GWF-(1,26420) -8.69816617E-08                    1_GWF-(1,14801)
        658         14          8  1.74170154E-06                    1_GWF-(1,26487) -2.87461474E-08                    1_GWF-(1,10479)
        659         14          9  1.86748113E-06                    1_GWF-(1,26486) -6.25608856E-08                    1_GWF-(1,14800)
        660         14         10  2.00773999E-06                    1_GWF-(1,26487) -9.42592143E-08                    1_GWF-(1,14801)
        661         14         11  1.61630722E-06                    1_GWF-(1,26420) -8.96259727E-08                    1_GWF-(1,14800)
        662         14         12  9.32533373E-07                    1_GWF-(1,26588) -6.54868382E-08                    1_GWF-(1,14801)
        663         15          1  1.07239992E-06                    1_GWF-(1,26543) -4.95786492E-08                    1_GWF-(1,14800)
        664         15          2 -1.18296853E-06                    1_GWF-(1,26420)  2.71147018E-08                     1_GWF-(1,9291)
        665         15          3 -1.02582043E-06                    1_GWF-(1,26487)  3.55612646E-08                    1_GWF-(1,15091)
        666         15          4 -1.13980370E-06                    1_GWF-(1,26486) -5.61683654E-08                    1_GWF-(1,14800)
        667         15          5 -1.07396191E-06                    1_GWF-(1,26487) -6.07486783E-08                    1_GWF-(1,14801)
        668         15          6 -9.78036705E-07                    1_GWF-(1,26486) -4.05534990E-08                    1_GWF-(1,14800)
        669         16          1  9.26538679E-07                    1_GWF-(1,26486) -3.51202586E-08                    1_GWF-(1,14801)
 --------------------------------------------------------------------------------------------------------------------------------------



 MEMORY MANAGER TOTAL STORAGE BY DATA TYPE, IN MEGABYTES
 -------------------------------
                    ALLOCATED   
 DATA TYPE           MEMORY     
 -------------------------------
 Character        4.66090000E-02
 Logical          4.40000000E-05
 Integer          5.2037920     
 Real             11.901376     
 -------------------------------
 Total            17.151821     
 -------------------------------


 
 Run end date and time (yyyy/mm/dd hh:mm:ss): 2022/06/01 17:09:16
 Elapsed run time:  0.659 Seconds
 Normal termination of simulation.
