                                   MODFLOW 6
                U.S. GEOLOGICAL SURVEY MODULAR HYDROLOGIC MODEL
                            VERSION 6.2.2 07/30/2021

   MODFLOW 6 compiled Jul 31 2021 14:22:53 with IFORT compiler (ver. 19.10.3)

This software has been approved for release by the U.S. Geological 
Survey (USGS). Although the software has been subjected to rigorous 
review, the USGS reserves the right to update the software as needed 
pursuant to further analysis and review. No warranty, expressed or 
implied, is made by the USGS or the U.S. Government as to the 
functionality of the software and related material nor shall the 
fact of release constitute any such warranty. Furthermore, the 
software is released on condition that neither the USGS nor the U.S. 
Government shall be held liable for any damages resulting from its 
authorized or unauthorized use. Also refer to the USGS Water 
Resources Software User Rights Notice for complete use, copyright, 
and distribution information.


System command used to initiate simulation:
mf6

MODFLOW was compiled using uniform precision.

Real Variables
  KIND: 8
  TINY (smallest non-zero value):    2.225074-308
  HUGE (largest value):    1.797693+308
  PRECISION: 15
  BIT SIZE: 64

Integer Variables
  KIND: 4
  HUGE (largest value): 2147483647
  BIT SIZE: 32

Long Integer Variables
  KIND: 8
  HUGE (largest value): 9223372036854775807
  BIT SIZE: 64

Logical Variables
  KIND: 4
  BIT SIZE: 32
 

 OPENED mfsim.nam
 FILE TYPE:NAM   UNIT 1001   STATUS:OLD                 
 FORMAT:FORMATTED              ACCESS:SEQUENTIAL          
 ACTION:READ                

 # File generated by Flopy version 3.3.5 on 04/28/2022 at 15:59:09.

 READING SIMULATION OPTIONS
 END OF SIMULATION OPTIONS

 READING SIMULATION TIMING

 OPENED mfsim.tdis
 FILE TYPE:TDIS   UNIT 1002   STATUS:OLD                 
 FORMAT:FORMATTED              ACCESS:SEQUENTIAL          
 ACTION:READ                


 TDIS -- TEMPORAL DISCRETIZATION PACKAGE,
 VERSION 1 : 11/13/2014 - INPUT READ FROM UNIT 1002
 # File generated by Flopy version 3.3.5 on 04/28/2022 at 15:59:09.
 PROCESSING TDIS OPTIONS
    SIMULATION TIME UNIT IS SECONDS
 END OF TDIS OPTIONS
 PROCESSING TDIS DIMENSIONS
    1 STRESS PERIOD(S) IN SIMULATION
 END OF TDIS DIMENSIONS
 PROCESSING TDIS PERIODDATA


 STRESS PERIOD     LENGTH       TIME STEPS     MULTIPLIER FOR DELT
 ----------------------------------------------------------------------------
        1         6.000000          1                    1.000
 END OF TDIS PERIODDATA
 END OF SIMULATION TIMING

 READING SIMULATION MODELS
    GWF6 model ML will be created as model 1
 END OF SIMULATION MODELS

 READING SIMULATION EXCHANGES
 END OF SIMULATION EXCHANGES

 READING SOLUTIONGROUP

 Creating solution: SLN_1           

 OPENED mfsim.ims
 FILE TYPE:IMS   UNIT 1015   STATUS:OLD                 
 FORMAT:FORMATTED              ACCESS:SEQUENTIAL          
 ACTION:READ                

 END OF SIMULATION SOLUTIONGROUP

 IMS -- ITERATIVE MODEL SOLUTION PACKAGE, VERSION 6, 4/28/2017
         INPUT READ FROM UNIT 1015
 # File generated by Flopy version 3.3.5 on 04/28/2022 at 15:59:09.

 PROCESSING IMS OPTIONS
 END OF IMS OPTIONS

 PROCESSING IMS NONLINEAR
 END OF IMS NONLINEAR DATA
 ***UNDER-RELAXATION WILL NOT BE USED***
 
 ***IMS LINEAR SOLVER WILL BE USED***

 IMSLINEAR -- UNSTRUCTURED LINEAR SOLUTION PACKAGE, VERSION 8, 04/28/2017

 PROCESSING LINEAR DATA
 END OF LINEAR DATA
 
 OUTER ITERATION CONVERGENCE CRITERION    (DVCLOSE) =    0.100000E-04
 MAXIMUM NUMBER OF OUTER ITERATIONS        (MXITER) = 100
 SOLVER PRINTOUT INDEX                     (IPRIMS) = 2
 NONLINEAR ITERATION METHOD            (NONLINMETH) = 0
 LINEAR SOLUTION METHOD                   (LINMETH) = 1

       SOLUTION BY THE        CONJUGATE-GRADIENT       METHOD
 ------------------------------------------------------------------
 MAXIMUM OF 100 CALLS OF SOLUTION ROUTINE
 MAXIMUM OF 50 INTERNAL ITERATIONS PER CALL TO SOLUTION ROUTINE
 LINEAR ACCELERATION METHOD            = CG        
 MATRIX PRECONDITIONING TYPE           = INCOMPLETE LU       
 MATRIX SCALING APPROACH               = NO SCALING          
 MATRIX REORDERING APPROACH            = ORIGINAL ORDERING        
 NUMBER OF ORTHOGONALIZATIONS          = 0
 HEAD CHANGE CRITERION FOR CLOSURE     =    0.10000E-05
 RESIDUAL CHANGE CRITERION FOR CLOSURE =    0.10000E-04
 RESIDUAL CONVERGENCE OPTION           = 1
 RESIDUAL CONVERGENCE NORM             = INFINITY NORM S 
 RELAXATION FACTOR                     =    0.00000E+00



 
    Solving:  Stress period:     1    Time step:     1
 
1
                            STRESS PERIOD NO. 1, LENGTH =   6.000000    
                            -----------------------------------------------
                            NUMBER OF TIME STEPS = 1
                            MULTIPLIER FOR DELT =     1.000
                            INITIAL TIME STEP SIZE =   6.000000    

 SLN_1 OUTER ITERATION SUMMARY
 ----------------------------------------------------------------------------------------------------------
                                OUTER      INNER                    STEP   MAXIMUM CHANGE MODEL-(CELLID) OR
 OUTER ITERATION STEP       ITERATION  ITERATION  MAXIMUM CHANGE SUCCESS             MODEL-PACKAGE-(NUMBER)
 ----------------------------------------------------------------------------------------------------------
 Model                              1         50       40.914647                            1_GWF-(1,26519)
 Model                              2         50      -36.005028                            1_GWF-(1,26519)
 Model                              3         50     -0.36014366                            1_GWF-(1,25161)
 Model                              4         50 -6.30475125E-02                            1_GWF-(1,21418)
 Model                              5         50 -8.13432211E-03                            1_GWF-(1,11378)
 Model                              6         50 -7.34239029E-04                            1_GWF-(1,21418)
 Model                              7         41 -3.00035350E-05                             1_GWF-(1,8197)
 Model                              8          1  3.96574698E-07       *                    1_GWF-(1,26663)
 ----------------------------------------------------------------------------------------------------------


 8 CALLS TO NUMERICAL SOLUTION IN TIME STEP 1 STRESS PERIOD 1
 342 TOTAL ITERATIONS

 SLN_1 INNER ITERATION SUMMARY
 --------------------------------------------------------------------------------------------------------------------------------------
      TOTAL      OUTER      INNER                                                            MAXIMUM                                   
  ITERATION  ITERATION  ITERATION  MAXIMUM CHANGE      MAXIMUM CHANGE MODEL-(CELLID)        RESIDUAL    MAXIMUM RESIDUAL MODEL-(CELLID)
 --------------------------------------------------------------------------------------------------------------------------------------
          1          1          1      -11.826527                    1_GWF-(1,12785)      0.66549527                    1_GWF-(1,11179)
          2          1          2       7.9534350                    1_GWF-(1,26564)     -0.36585246                    1_GWF-(1,11175)
          3          1          3       8.5932482                    1_GWF-(1,26565)     -0.32979923                    1_GWF-(1,11178)
          4          1          4       8.3477442                    1_GWF-(1,26564)      0.32155444                    1_GWF-(1,11180)
          5          1          5       8.5442747                    1_GWF-(1,26611)      0.29325658                    1_GWF-(1,11157)
          6          1          6       9.1877036                    1_GWF-(1,26649)      0.22664128                    1_GWF-(1,11158)
          7          1          7       9.2633556                    1_GWF-(1,26622)     -0.25584321                    1_GWF-(1,11208)
          8          1          8       7.4021603                    1_GWF-(1,26665)      0.14866419                    1_GWF-(1,10961)
          9          1          9      -5.6474445                    1_GWF-(1,26665)      0.15007228                    1_GWF-(1,11158)
         10          1         10      -5.6485232                    1_GWF-(1,26666)      0.15533401                    1_GWF-(1,11207)
         11          1         11      -5.3323322                    1_GWF-(1,26665)     -0.14539463                    1_GWF-(1,11207)
         12          1         12      -5.1187905                    1_GWF-(1,26622)      0.10913607                    1_GWF-(1,11059)
         13          1         13      -6.0440683                    1_GWF-(1,26649)  9.19357670E-02                    1_GWF-(1,11052)
         14          1         14      -4.9330967                    1_GWF-(1,26622)  8.46330879E-02                    1_GWF-(1,11050)
         15          1         15      -3.9535063                    1_GWF-(1,26623)  8.25899396E-02                    1_GWF-(1,11017)
         16          1         16      -3.0942766                    1_GWF-(1,26622)  8.16648904E-02                    1_GWF-(1,11058)
         17          1         17      -3.6286422                    1_GWF-(1,26588)      0.10964117                    1_GWF-(1,10873)
         18          1         18      -4.7224032                    1_GWF-(1,26543)     -0.10132884                    1_GWF-(1,11152)
         19          1         19      -6.1959460                    1_GWF-(1,26588)  8.49099423E-02                    1_GWF-(1,11194)
         20          1         20      -4.9976184                    1_GWF-(1,26543)  8.77866121E-02                    1_GWF-(1,11151)
         21          1         21      -3.5652603                    1_GWF-(1,26544) -8.24146888E-02                    1_GWF-(1,11152)
         22          1         22      -3.8707116                    1_GWF-(1,26486) -9.00348379E-02                    1_GWF-(1,11151)
         23          1         23      -3.7415275                    1_GWF-(1,26487)  7.67999720E-02                    1_GWF-(1,11151)
         24          1         24       3.5787703                    1_GWF-(1,26487)  6.66218995E-02                    1_GWF-(1,11108)
         25          1         25       4.6804308                    1_GWF-(1,26420) -6.73739789E-02                    1_GWF-(1,11151)
         26          1         26       4.8787583                    1_GWF-(1,26487) -7.93756674E-02                    1_GWF-(1,11108)
         27          1         27       4.0621008                    1_GWF-(1,26420)  6.54685523E-02                    1_GWF-(1,11108)
         28          1         28       2.9306204                    1_GWF-(1,26487) -5.85725662E-02                    1_GWF-(1,11149)
         29          1         29       2.2173516                    1_GWF-(1,26542) -5.66639013E-02                    1_GWF-(1,11150)
         30          1         30       1.8533533                    1_GWF-(1,26623) -5.84587400E-02                    1_GWF-(1,11063)
         31          1         31       1.9917555                    1_GWF-(1,26586)  5.01046425E-02                    1_GWF-(1,11158)
         32          1         32       1.7476148                    1_GWF-(1,26422) -4.79010593E-02                    1_GWF-(1,11053)
         33          1         33      -1.9726733                    1_GWF-(1,26422) -5.14721049E-02                    1_GWF-(1,11155)
         34          1         34      -2.0285247                    1_GWF-(1,26350) -4.54333715E-02                    1_GWF-(1,11154)
         35          1         35      -2.0773576                    1_GWF-(1,26422)  4.89369115E-02                    1_GWF-(1,11154)
         36          1         36      -1.8952074                    1_GWF-(1,26350) -4.95236160E-02                    1_GWF-(1,11153)
         37          1         37      -1.7139581                    1_GWF-(1,26422)  4.86606417E-02                    1_GWF-(1,11064)
         38          1         38      -1.5707380                    1_GWF-(1,26648)  5.63342082E-02                    1_GWF-(1,11063)
         39          1         39      -1.5070738                    1_GWF-(1,26649)  4.32005062E-02                    1_GWF-(1,11150)
         40          1         40      -1.4872151                    1_GWF-(1,26623)  3.30560158E-02                    1_GWF-(1,11110)
         41          1         41      -1.3032333                    1_GWF-(1,26649) -3.45002238E-02                    1_GWF-(1,11150)
         42          1         42      -1.1636983                    1_GWF-(1,26623)  3.86425201E-02                    1_GWF-(1,11150)
         43          1         43     -0.96902141                    1_GWF-(1,21484) -3.98978282E-02                    1_GWF-(1,11151)
         44          1         44     -0.96414515                    1_GWF-(1,21412) -4.18134158E-02                    1_GWF-(1,11108)
         45          1         45      -1.2364735                    1_GWF-(1,21259) -2.99113692E-02                    1_GWF-(1,11061)
         46          1         46      -1.1590970                    1_GWF-(1,20925)  3.32729802E-02                    1_GWF-(1,14801)
         47          1         47      -1.2207535                    1_GWF-(1,20919) -4.33422670E-02                    1_GWF-(1,14801)
         48          1         48     -0.91160555                    1_GWF-(1,20918)  5.50044633E-02                    1_GWF-(1,14801)
         49          1         49     -0.68647052                    1_GWF-(1,26217) -5.85599003E-02                    1_GWF-(1,14801)
         50          1         50     -0.62658421                    1_GWF-(1,26218)  7.82594256E-02                    1_GWF-(1,14801)
         51          2          1      -37.027246                    1_GWF-(1,26519)     -0.16475380                    1_GWF-(1,26519)
         52          2          2      -13.804902                    1_GWF-(1,26607) -6.32460521E-02                    1_GWF-(1,26516)
         53          2          3      -7.1440453                    1_GWF-(1,26637)  4.25572032E-02                    1_GWF-(1,26516)
         54          2          4      -7.0378932                    1_GWF-(1,26665)  4.91537079E-02                    1_GWF-(1,14801)
         55          2          5      -4.5764213                    1_GWF-(1,26649) -4.70469248E-02                    1_GWF-(1,14801)
         56          2          6      -3.4837208                    1_GWF-(1,26589)  6.36229308E-02                    1_GWF-(1,14801)
         57          2          7      -2.9702584                    1_GWF-(1,26543) -7.07128284E-02                    1_GWF-(1,14801)
         58          2          8      -2.6084698                    1_GWF-(1,26544)      0.11020342                    1_GWF-(1,14801)
         59          2          9      -1.8984937                    1_GWF-(1,26487) -9.41182768E-02                    1_GWF-(1,14801)
         60          2         10      -1.5715186                    1_GWF-(1,26421)  8.64802172E-02                    1_GWF-(1,14801)
         61          2         11      -1.4678029                    1_GWF-(1,26422)  1.54659469E-02                    1_GWF-(1,14800)
         62          2         12      -1.1671656                    1_GWF-(1,26217)  3.28805079E-02                    1_GWF-(1,14800)
         63          2         13     -0.89633847                    1_GWF-(1,26218)  6.37366406E-02                    1_GWF-(1,14801)
         64          2         14     -0.56739200                    1_GWF-(1,26649) -6.30589923E-02                    1_GWF-(1,14801)
         65          2         15     -0.61715983                    1_GWF-(1,26622)  5.85596972E-02                    1_GWF-(1,14801)
         66          2         16     -0.80175454                    1_GWF-(1,25775)  1.57162703E-02                    1_GWF-(1,14801)
         67          2         17     -0.87350606                    1_GWF-(1,25758)  6.26285621E-02                    1_GWF-(1,14800)
         68          2         18      0.87401938                    1_GWF-(1,26217)  8.77030203E-02                    1_GWF-(1,14801)
         69          2         19      0.64940215                    1_GWF-(1,26218)  6.49118647E-02                    1_GWF-(1,14800)
         70          2         20      0.46401670                    1_GWF-(1,26543)  5.03606338E-02                    1_GWF-(1,14801)
         71          2         21      0.69103852                    1_GWF-(1,26588)  1.00729131E-02                    1_GWF-(1,14801)
         72          2         22      0.73239650                    1_GWF-(1,26543)  4.53947062E-02                    1_GWF-(1,14800)
         73          2         23      0.44373676                    1_GWF-(1,26544)  8.00797856E-02                    1_GWF-(1,14801)
         74          2         24     -0.49228063                    1_GWF-(1,26422)  7.13225135E-02                    1_GWF-(1,14800)
         75          2         25     -0.68333403                    1_GWF-(1,26486)  6.09224724E-02                    1_GWF-(1,14801)
         76          2         26     -0.73842953                    1_GWF-(1,26487)  1.15254894E-02                    1_GWF-(1,14800)
         77          2         27     -0.49310895                    1_GWF-(1,26420)  3.79096444E-02                    1_GWF-(1,14800)
         78          2         28     -0.26354907                    1_GWF-(1,26543)  6.70280089E-02                    1_GWF-(1,14801)
         79          2         29      0.27931986                    1_GWF-(1,26487)  6.57329361E-02                    1_GWF-(1,14800)
         80          2         30      0.28263725                    1_GWF-(1,26420)  8.78031165E-02                    1_GWF-(1,14801)
         81          2         31      0.23602826                    1_GWF-(1,25268) -7.99021861E-02                    1_GWF-(1,14801)
         82          2         32      0.25914399                    1_GWF-(1,26218)  8.80590859E-02                    1_GWF-(1,14801)
         83          2         33      0.27470915                    1_GWF-(1,26217) -6.04627711E-02                    1_GWF-(1,14801)
         84          2         34     -0.20901134                    1_GWF-(1,26217)  4.81446166E-02                    1_GWF-(1,14801)
         85          2         35      0.18730620                    1_GWF-(1,26422)  3.04362283E-02                    1_GWF-(1,14800)
         86          2         36      0.18607311                    1_GWF-(1,26218)  2.55723585E-02                    1_GWF-(1,14801)
         87          2         37     -0.20476327                    1_GWF-(1,21290)  1.63354539E-02                    1_GWF-(1,14800)
         88          2         38     -0.20771863                    1_GWF-(1,21282)  1.36815184E-02                    1_GWF-(1,14801)
         89          2         39     -0.19381235                    1_GWF-(1,20937)  7.52770737E-03                    1_GWF-(1,14800)
         90          2         40     -0.19062610                    1_GWF-(1,20915)  5.03315734E-03                    1_GWF-(1,14801)
         91          2         41     -0.15331227                    1_GWF-(1,25494)  7.18700170E-03                    1_GWF-(1,14801)
         92          2         42      0.15991519                    1_GWF-(1,21364)  9.22104891E-03                    1_GWF-(1,14800)
         93          2         43     -0.19323030                    1_GWF-(1,26350)  1.25274399E-02                    1_GWF-(1,14801)
         94          2         44      0.20878840                    1_GWF-(1,21283)  1.20514476E-02                    1_GWF-(1,14800)
         95          2         45      0.19941984                    1_GWF-(1,21265)  1.46835839E-02                    1_GWF-(1,14801)
         96          2         46      0.17779519                    1_GWF-(1,20917)  1.12979766E-02                    1_GWF-(1,14800)
         97          2         47      0.13586323                    1_GWF-(1,20232)  1.03273250E-02                    1_GWF-(1,14801)
         98          2         48 -9.34416837E-02                    1_GWF-(1,26422)  6.78931449E-03                    1_GWF-(1,14800)
         99          2         49 -8.71022950E-02                    1_GWF-(1,26586)  6.49953732E-03                    1_GWF-(1,14801)
        100          2         50 -7.24582778E-02                    1_GWF-(1,20584)  4.95805026E-03                    1_GWF-(1,15939)
        101          3          1     -0.13123573                    1_GWF-(1,11442) -6.47902060E-03                    1_GWF-(1,11378)
        102          3          2     -0.13481269                    1_GWF-(1,11437)  5.59513037E-03                    1_GWF-(1,14800)
        103          3          3 -9.37150476E-02                    1_GWF-(1,26079)  7.21280926E-03                    1_GWF-(1,14801)
        104          3          4 -7.04547617E-02                    1_GWF-(1,26085)  5.82445835E-03                    1_GWF-(1,14800)
        105          3          5 -7.55751860E-02                    1_GWF-(1,25572)  7.37897617E-03                    1_GWF-(1,14801)
        106          3          6 -6.87108316E-02                    1_GWF-(1,25582)  6.67433359E-03                    1_GWF-(1,14800)
        107          3          7 -6.35511763E-02                    1_GWF-(1,25580)  6.60949348E-03                    1_GWF-(1,14801)
        108          3          8 -7.12937303E-02                    1_GWF-(1,26422)  4.98986802E-03                    1_GWF-(1,14800)
        109          3          9 -7.64084874E-02                    1_GWF-(1,26350)  5.82561555E-03                    1_GWF-(1,14801)
        110          3         10 -6.54496269E-02                    1_GWF-(1,26422)  4.11077380E-03                    1_GWF-(1,14800)
        111          3         11 -6.84350508E-02                    1_GWF-(1,24873)  3.38092537E-03                    1_GWF-(1,15939)
        112          3         12 -6.23298318E-02                    1_GWF-(1,26422) -2.89924906E-03                    1_GWF-(1,15939)
        113          3         13 -4.63861774E-02                    1_GWF-(1,24901) -1.72996656E-03                    1_GWF-(1,11378)
        114          3         14 -4.72925749E-02                    1_GWF-(1,25416)  1.53317238E-03                    1_GWF-(1,14801)
        115          3         15 -4.56164753E-02                    1_GWF-(1,25415) -2.50394212E-03                    1_GWF-(1,14801)
        116          3         16 -4.20977288E-02                    1_GWF-(1,22559)  3.58725890E-03                    1_GWF-(1,14801)
        117          3         17 -4.33646634E-02                    1_GWF-(1,22537)  4.20690011E-03                    1_GWF-(1,14800)
        118          3         18 -3.95856569E-02                    1_GWF-(1,22527)  6.26383508E-03                    1_GWF-(1,14801)
        119          3         19 -3.62581974E-02                    1_GWF-(1,22311)  6.90533062E-03                    1_GWF-(1,14800)
        120          3         20 -4.02892327E-02                    1_GWF-(1,20921)  9.55175972E-03                    1_GWF-(1,14801)
        121          3         21 -4.94612036E-02                    1_GWF-(1,21263) -9.33351797E-03                    1_GWF-(1,14801)
        122          3         22 -4.70046985E-02                    1_GWF-(1,20229)  1.21412148E-02                    1_GWF-(1,14801)
        123          3         23 -4.49358614E-02                    1_GWF-(1,20222) -1.26795286E-02                    1_GWF-(1,14801)
        124          3         24  5.17376076E-02                    1_GWF-(1,26588)  1.27510988E-02                    1_GWF-(1,14801)
        125          3         25  6.00098116E-02                    1_GWF-(1,26487)  4.65874888E-03                    1_GWF-(1,14800)
        126          3         26  6.03121332E-02                    1_GWF-(1,26420)  3.30776634E-03                    1_GWF-(1,14800)
        127          3         27  4.61789922E-02                    1_GWF-(1,26487)  9.15612095E-03                    1_GWF-(1,14801)
        128          3         28 -3.22036725E-02                    1_GWF-(1,26487) -1.11202077E-02                    1_GWF-(1,14801)
        129          3         29 -3.83186004E-02                    1_GWF-(1,26486)  9.64484981E-03                    1_GWF-(1,14801)
        130          3         30 -4.05418686E-02                    1_GWF-(1,26622)  3.69405886E-03                    1_GWF-(1,14800)
        131          3         31 -4.42233702E-02                    1_GWF-(1,26649)  2.18909324E-03                    1_GWF-(1,14800)
        132          3         32 -4.54859883E-02                    1_GWF-(1,26622)  7.04591856E-03                    1_GWF-(1,14801)
        133          3         33 -3.47220961E-02                    1_GWF-(1,26649) -8.44237407E-03                    1_GWF-(1,14801)
        134          3         34  3.08805920E-02                    1_GWF-(1,26649)  8.36182304E-03                    1_GWF-(1,14801)
        135          3         35 -3.50606720E-02                    1_GWF-(1,26665)  3.45517688E-03                    1_GWF-(1,14800)
        136          3         36  4.65381706E-02                    1_GWF-(1,26665) -8.75629930E-04                    1_GWF-(1,15942)
        137          3         37  4.19166370E-02                    1_GWF-(1,26666)  3.13586097E-03                    1_GWF-(1,14801)
        138          3         38  2.98441127E-02                    1_GWF-(1,26665) -4.46976167E-03                    1_GWF-(1,14801)
        139          3         39 -2.46367797E-02                    1_GWF-(1,26665)  3.90598916E-03                    1_GWF-(1,14801)
        140          3         40  2.18761371E-02                    1_GWF-(1,26421) -2.96515853E-03                    1_GWF-(1,14801)
        141          3         41  2.51312754E-02                    1_GWF-(1,26486) -9.45136065E-04                    1_GWF-(1,15939)
        142          3         42  2.71533078E-02                    1_GWF-(1,26487)  1.31840887E-03                    1_GWF-(1,14801)
        143          3         43  2.74947278E-02                    1_GWF-(1,26486) -2.63501506E-03                    1_GWF-(1,14801)
        144          3         44  2.56888045E-02                    1_GWF-(1,26588) -2.25921953E-03                    1_GWF-(1,14800)
        145          3         45  1.79597685E-02                    1_GWF-(1,26622) -2.10158548E-03                    1_GWF-(1,14801)
        146          3         46  1.64692840E-02                    1_GWF-(1,26649) -1.39927140E-03                    1_GWF-(1,14800)
        147          3         47 -1.33063069E-02                    1_GWF-(1,26141) -1.36797138E-03                    1_GWF-(1,14801)
        148          3         48 -1.20792377E-02                    1_GWF-(1,26162) -8.64681485E-04                    1_GWF-(1,15939)
        149          3         49 -1.52917052E-02                    1_GWF-(1,26649)  5.91471832E-04                    1_GWF-(1,15939)
        150          3         50 -1.20632030E-02                    1_GWF-(1,26623)  4.10867363E-04                    1_GWF-(1,15854)
        151          4          1 -1.77558637E-02                    1_GWF-(1,11936)  3.21115175E-04                    1_GWF-(1,15939)
        152          4          2 -8.80265607E-03                    1_GWF-(1,11935) -4.12864365E-04                    1_GWF-(1,15939)
        153          4          3 -7.76717598E-03                    1_GWF-(1,26217) -5.84333975E-04                    1_GWF-(1,14801)
        154          4          4 -8.45176513E-03                    1_GWF-(1,26218) -5.60059111E-04                    1_GWF-(1,14800)
        155          4          5 -7.21950291E-03                    1_GWF-(1,26217) -7.25918475E-04                    1_GWF-(1,14801)
        156          4          6 -7.36436902E-03                    1_GWF-(1,26218) -7.17596190E-04                    1_GWF-(1,14800)
        157          4          7 -7.43680225E-03                    1_GWF-(1,20584) -8.53377442E-04                    1_GWF-(1,14801)
        158          4          8 -6.22687718E-03                    1_GWF-(1,20577)  5.79173596E-04                    1_GWF-(1,14801)
        159          4          9  6.18462393E-03                    1_GWF-(1,26486)  2.05647725E-04                    1_GWF-(1,14800)
        160          4         10  6.23597754E-03                    1_GWF-(1,26487) -3.21094141E-04                    1_GWF-(1,14801)
        161          4         11  5.27753873E-03                    1_GWF-(1,26543) -5.57709320E-04                    1_GWF-(1,14800)
        162          4         12 -4.66715317E-03                    1_GWF-(1,21335) -7.49852930E-04                    1_GWF-(1,14801)
        163          4         13 -4.99201185E-03                    1_GWF-(1,26674)  7.33844621E-04                    1_GWF-(1,14801)
        164          4         14 -5.73228046E-03                    1_GWF-(1,26666) -5.47442560E-04                    1_GWF-(1,14801)
        165          4         15 -5.92659433E-03                    1_GWF-(1,26665)  8.59885994E-05                    1_GWF-(1,14801)
        166          4         16  6.17995504E-03                    1_GWF-(1,26665)  4.24427486E-04                    1_GWF-(1,14801)
        167          4         17 -3.91422598E-03                    1_GWF-(1,20211) -6.34363074E-04                    1_GWF-(1,14801)
        168          4         18 -3.38574234E-03                    1_GWF-(1,20720)  7.23299527E-04                    1_GWF-(1,14801)
        169          4         19  3.77079560E-03                    1_GWF-(1,26622)  5.15718976E-04                    1_GWF-(1,14800)
        170          4         20  3.55633289E-03                    1_GWF-(1,26649)  2.62345910E-04                    1_GWF-(1,14801)
        171          4         21 -4.00584976E-03                    1_GWF-(1,26649)  2.68587387E-04                    1_GWF-(1,14801)
        172          4         22 -3.60563970E-03                    1_GWF-(1,26622) -5.47274227E-04                    1_GWF-(1,14801)
        173          4         23 -3.44773766E-03                    1_GWF-(1,26486)  7.54746350E-04                    1_GWF-(1,14801)
        174          4         24 -3.54674317E-03                    1_GWF-(1,26487) -5.43860446E-04                    1_GWF-(1,14801)
        175          4         25 -3.67625486E-03                    1_GWF-(1,26588)  2.83536974E-04                    1_GWF-(1,14801)
        176          4         26 -3.30634586E-03                    1_GWF-(1,26487)  2.00767043E-04                    1_GWF-(1,14801)
        177          4         27 -2.53696129E-03                    1_GWF-(1,26588)  4.17973720E-04                    1_GWF-(1,14800)
        178          4         28 -1.90022061E-03                     1_GWF-(1,8049)  6.18190488E-04                    1_GWF-(1,14801)
        179          4         29  1.42781355E-03                    1_GWF-(1,20216) -6.18575568E-04                    1_GWF-(1,14801)
        180          4         30  1.40241846E-03                    1_GWF-(1,26588)  6.58294911E-04                    1_GWF-(1,14801)
        181          4         31  1.46098565E-03                    1_GWF-(1,26422) -4.72506339E-04                    1_GWF-(1,14801)
        182          4         32  1.56283589E-03                    1_GWF-(1,26218)  4.16258196E-04                    1_GWF-(1,14801)
        183          4         33  9.56961193E-04                     1_GWF-(1,8042)  2.55678814E-04                    1_GWF-(1,14800)
        184          4         34 -8.79899365E-04                    1_GWF-(1,21135)  1.95603269E-04                    1_GWF-(1,14801)
        185          4         35 -9.57949171E-04                    1_GWF-(1,21137) -1.44264178E-04                    1_GWF-(1,14801)
        186          4         36  1.25230545E-03                     1_GWF-(1,7967)  8.58805573E-05                    1_GWF-(1,14801)
        187          4         37  1.18164587E-03                     1_GWF-(1,7970)  8.36844234E-05                    1_GWF-(1,15939)
        188          4         38  1.13759231E-03                     1_GWF-(1,8065) -7.92784883E-05                    1_GWF-(1,15939)
        189          4         39  9.87292658E-04                     1_GWF-(1,8068)  7.90160389E-05                    1_GWF-(1,15939)
        190          4         40 -1.11947620E-03                    1_GWF-(1,26422)  7.47825883E-05                    1_GWF-(1,14799)
        191          4         41 -1.08325829E-03                    1_GWF-(1,26350)  6.04297191E-05                    1_GWF-(1,14801)
        192          4         42 -1.04093229E-03                    1_GWF-(1,26422)  6.05995916E-05                    1_GWF-(1,14800)
        193          4         43 -1.02030547E-03                    1_GWF-(1,26350)  7.88885511E-05                    1_GWF-(1,14801)
        194          4         44 -9.19883350E-04                    1_GWF-(1,26422)  6.38063684E-05                    1_GWF-(1,14800)
        195          4         45 -7.03882651E-04                    1_GWF-(1,20935)  7.25511106E-05                    1_GWF-(1,14801)
        196          4         46 -6.64230743E-04                    1_GWF-(1,26422)  5.95095860E-05                    1_GWF-(1,14800)
        197          4         47 -5.37688230E-04                    1_GWF-(1,26350)  6.20387637E-05                    1_GWF-(1,14801)
        198          4         48  5.46891650E-04                    1_GWF-(1,26079)  4.52973221E-05                    1_GWF-(1,14800)
        199          4         49  6.13774961E-04                    1_GWF-(1,26080)  5.10005924E-05                    1_GWF-(1,14801)
        200          4         50  5.54761687E-04                    1_GWF-(1,11442)  3.61397040E-05                    1_GWF-(1,14800)
        201          5          1 -7.23359630E-03                    1_GWF-(1,11378)  2.64842353E-05                    1_GWF-(1,14801)
        202          5          2 -1.93954085E-03                    1_GWF-(1,11369)  2.27766980E-05                    1_GWF-(1,14800)
        203          5          3 -9.48490411E-04                    1_GWF-(1,11454)  3.13953408E-05                    1_GWF-(1,14801)
        204          5          4 -6.90394895E-04                    1_GWF-(1,11458)  3.36422220E-05                    1_GWF-(1,14800)
        205          5          5  5.72672903E-04                    1_GWF-(1,11468)  5.00505193E-05                    1_GWF-(1,14801)
        206          5          6  6.49072011E-04                    1_GWF-(1,11460)  4.65201370E-05                    1_GWF-(1,14800)
        207          5          7  5.47481067E-04                    1_GWF-(1,11959)  5.90517355E-05                    1_GWF-(1,14801)
        208          5          8  5.72838794E-04                    1_GWF-(1,11997)  4.73733654E-05                    1_GWF-(1,14800)
        209          5          9  6.58006952E-04                    1_GWF-(1,11999)  4.85344598E-05                    1_GWF-(1,14801)
        210          5         10  6.07893313E-04                    1_GWF-(1,11981)  3.00975895E-05                    1_GWF-(1,14799)
        211          5         11  5.79453024E-04                    1_GWF-(1,26649)  2.71850748E-05                    1_GWF-(1,14798)
        212          5         12 -6.44788444E-04                    1_GWF-(1,26649)  4.53249379E-05                    1_GWF-(1,14801)
        213          5         13 -5.05251591E-04                    1_GWF-(1,26486)  3.56355100E-05                    1_GWF-(1,14800)
        214          5         14  4.76963355E-04                    1_GWF-(1,26486)  3.07134629E-05                    1_GWF-(1,14801)
        215          5         15 -4.27551507E-04                    1_GWF-(1,26486)  2.43440710E-05                    1_GWF-(1,14799)
        216          5         16 -3.57873697E-04                    1_GWF-(1,26350)  2.27197420E-05                    1_GWF-(1,15939)
        217          5         17 -3.81801527E-04                    1_GWF-(1,26486)  2.91354061E-05                    1_GWF-(1,14799)
        218          5         18 -3.64227770E-04                    1_GWF-(1,12055)  2.00434942E-05                    1_GWF-(1,14798)
        219          5         19 -4.57716767E-04                    1_GWF-(1,26486)  2.39309579E-05                    1_GWF-(1,14799)
        220          5         20 -5.05483690E-04                    1_GWF-(1,26487)  1.87922211E-05                    1_GWF-(1,14800)
        221          5         21  4.58893164E-04                    1_GWF-(1,26487)  1.88785356E-05                    1_GWF-(1,14798)
        222          5         22 -3.36226389E-04                    1_GWF-(1,26487)  3.45781809E-05                    1_GWF-(1,14799)
        223          5         23 -2.44909940E-04                    1_GWF-(1,21137)  2.48296502E-05                    1_GWF-(1,14798)
        224          5         24  3.13884248E-04                     1_GWF-(1,8212)  2.71524124E-05                    1_GWF-(1,14801)
        225          5         25  3.42120330E-04                     1_GWF-(1,8218) -4.17236063E-05                    1_GWF-(1,14801)
        226          5         26  2.81834655E-04                    1_GWF-(1,21267)  5.13512344E-05                    1_GWF-(1,14801)
        227          5         27  4.21529039E-04                    1_GWF-(1,20572)  5.28064423E-05                    1_GWF-(1,14800)
        228          5         28  3.41084854E-04                    1_GWF-(1,20574)  6.26923858E-05                    1_GWF-(1,14801)
        229          5         29  3.45753010E-04                    1_GWF-(1,26588) -4.82363279E-05                    1_GWF-(1,14801)
        230          5         30 -3.95744642E-04                    1_GWF-(1,26588) -1.56547004E-05                    1_GWF-(1,14799)
        231          5         31 -2.82127354E-04                    1_GWF-(1,26543)  2.61746251E-05                    1_GWF-(1,14801)
        232          5         32 -2.25274698E-04                    1_GWF-(1,26588) -4.61280820E-05                    1_GWF-(1,14801)
        233          5         33 -1.84754604E-04                     1_GWF-(1,8219)  6.40673042E-05                    1_GWF-(1,14801)
        234          5         34 -1.21721383E-04                     1_GWF-(1,8211) -7.94422866E-05                    1_GWF-(1,14801)
        235          5         35 -1.12962232E-04                    1_GWF-(1,26422)  8.89394447E-05                    1_GWF-(1,14801)
        236          5         36 -9.64720700E-05                    1_GWF-(1,23626) -8.14214855E-05                    1_GWF-(1,14801)
        237          5         37  9.75452255E-05                     1_GWF-(1,8187)  6.89784537E-05                    1_GWF-(1,14801)
        238          5         38  1.20487099E-04                     1_GWF-(1,8187) -5.48493374E-05                    1_GWF-(1,14801)
        239          5         39  1.09726988E-04                     1_GWF-(1,8015)  4.11345476E-05                    1_GWF-(1,14801)
        240          5         40 -1.48174858E-04                    1_GWF-(1,26665) -2.36236096E-05                    1_GWF-(1,14801)
        241          5         41 -1.34828602E-04                    1_GWF-(1,26666) -9.64038919E-06                    1_GWF-(1,14799)
        242          5         42 -1.65733525E-04                    1_GWF-(1,26665)  1.39785940E-05                    1_GWF-(1,14801)
        243          5         43 -1.44716890E-04                    1_GWF-(1,26666) -2.42272986E-05                    1_GWF-(1,14801)
        244          5         44 -1.23876690E-04                    1_GWF-(1,26665)  2.25104049E-05                    1_GWF-(1,14801)
        245          5         45  8.63650956E-05                    1_GWF-(1,26665) -2.20858107E-05                    1_GWF-(1,14801)
        246          5         46  7.46340879E-05                    1_GWF-(1,26663)  1.38766535E-05                    1_GWF-(1,14801)
        247          5         47 -5.67946243E-05                    1_GWF-(1,20552) -1.20498543E-05                    1_GWF-(1,14801)
        248          5         48 -5.61801969E-05                    1_GWF-(1,20592) -1.19009539E-05                    1_GWF-(1,14799)
        249          5         49 -7.85441931E-05                    1_GWF-(1,20572)  9.94325271E-06                    1_GWF-(1,14799)
        250          5         50 -7.83863867E-05                    1_GWF-(1,20575) -1.28440478E-05                    1_GWF-(1,14799)
        251          6          1 -4.16695310E-05                    1_GWF-(1,26217)  1.26523469E-05                    1_GWF-(1,14799)
        252          6          2 -5.02558088E-05                    1_GWF-(1,21323) -1.54905515E-05                    1_GWF-(1,14799)
        253          6          3 -6.68821997E-05                    1_GWF-(1,20979)  1.42511909E-05                    1_GWF-(1,14799)
        254          6          4 -6.86585824E-05                    1_GWF-(1,21337) -1.44938067E-05                    1_GWF-(1,14799)
        255          6          5 -6.28309420E-05                    1_GWF-(1,21349) -1.00194927E-05                    1_GWF-(1,14798)
        256          6          6 -6.56099049E-05                    1_GWF-(1,20234) -9.51578565E-06                    1_GWF-(1,14799)
        257          6          7  8.00986305E-05                    1_GWF-(1,26665) -9.03507733E-06                    1_GWF-(1,14801)
        258          6          8 -6.61216244E-05                    1_GWF-(1,26665)  2.81111636E-06                    1_GWF-(1,14801)
        259          6          9  6.82774132E-05                    1_GWF-(1,26588) -7.84028305E-06                    1_GWF-(1,14799)
        260          6         10  6.11342552E-05                    1_GWF-(1,26622) -8.35326927E-06                    1_GWF-(1,14801)
        261          6         11 -6.05406043E-05                    1_GWF-(1,26622)  8.70259672E-06                    1_GWF-(1,14801)
        262          6         12 -6.06272549E-05                    1_GWF-(1,26623) -5.68659827E-06                    1_GWF-(1,14801)
        263          6         13 -5.88115792E-05                    1_GWF-(1,26622)  3.89448473E-06                    1_GWF-(1,14799)
        264          6         14 -4.15346959E-05                    1_GWF-(1,26666) -5.84128537E-06                    1_GWF-(1,14799)
        265          6         15 -3.85109411E-05                    1_GWF-(1,24331) -7.61022156E-06                    1_GWF-(1,14801)
        266          6         16 -3.96750644E-05                    1_GWF-(1,25339)  1.10270886E-05                    1_GWF-(1,14801)
        267          6         17 -3.71360399E-05                    1_GWF-(1,25339) -1.09739712E-05                    1_GWF-(1,14801)
        268          6         18 -3.86307349E-05                    1_GWF-(1,26487)  7.72558154E-06                    1_GWF-(1,14801)
        269          6         19  4.01656358E-05                    1_GWF-(1,26487)  2.18810535E-06                    1_GWF-(1,14798)
        270          6         20  3.72957824E-05                    1_GWF-(1,26486) -4.62116936E-06                    1_GWF-(1,14801)
        271          6         21 -3.32110111E-05                    1_GWF-(1,26486)  8.48419583E-06                    1_GWF-(1,14801)
        272          6         22 -2.70414630E-05                    1_GWF-(1,20635) -1.08362336E-05                    1_GWF-(1,14801)
        273          6         23 -2.53128783E-05                    1_GWF-(1,24657)  1.13760022E-05                    1_GWF-(1,14801)
        274          6         24 -2.62556041E-05                    1_GWF-(1,20574) -9.51384094E-06                    1_GWF-(1,14801)
        275          6         25 -2.43625550E-05                    1_GWF-(1,21475)  7.87447691E-06                    1_GWF-(1,14801)
        276          6         26 -2.13380936E-05                     1_GWF-(1,8049) -6.36154095E-06                    1_GWF-(1,14801)
        277          6         27 -2.16035759E-05                     1_GWF-(1,8049)  5.04709405E-06                    1_GWF-(1,14801)
        278          6         28 -1.48251697E-05                     1_GWF-(1,8333)  3.02847338E-06                    1_GWF-(1,14800)
        279          6         29  1.36605050E-05                    1_GWF-(1,26588)  2.56809060E-06                    1_GWF-(1,14799)
        280          6         30  1.50024976E-05                    1_GWF-(1,26543)  1.31107128E-06                    1_GWF-(1,14798)
        281          6         31  2.06358696E-05                    1_GWF-(1,26588)  8.08327411E-07                    1_GWF-(1,14800)
        282          6         32 -1.70890822E-05                    1_GWF-(1,26588)  1.73025272E-06                    1_GWF-(1,14801)
        283          6         33  1.48695447E-05                    1_GWF-(1,26588)  1.48812352E-06                    1_GWF-(1,14800)
        284          6         34 -9.35268508E-06                    1_GWF-(1,26588)  1.72353768E-06                    1_GWF-(1,14799)
        285          6         35  1.21426116E-05                     1_GWF-(1,7950) -1.23951871E-06                    1_GWF-(1,14799)
        286          6         36  1.39326316E-05                     1_GWF-(1,7950)  1.43922607E-06                    1_GWF-(1,14799)
        287          6         37  1.48111880E-05                     1_GWF-(1,8084)  1.16045544E-06                    1_GWF-(1,14798)
        288          6         38  1.10045113E-05                     1_GWF-(1,7981)  1.65892845E-06                    1_GWF-(1,14799)
        289          6         39  8.89910210E-06                     1_GWF-(1,8210)  1.06156827E-06                    1_GWF-(1,14798)
        290          6         40 -8.08734459E-06                    1_GWF-(1,26422)  1.33504824E-06                    1_GWF-(1,14799)
        291          6         41  1.01904430E-05                    1_GWF-(1,26486)  7.83712174E-07                    1_GWF-(1,14801)
        292          6         42 -1.01060149E-05                    1_GWF-(1,26486)  6.73411991E-07                    1_GWF-(1,14800)
        293          6         43  1.13603526E-05                    1_GWF-(1,26486)  6.80344784E-07                    1_GWF-(1,14801)
        294          6         44 -9.56126894E-06                    1_GWF-(1,26486)  5.17222034E-07                    1_GWF-(1,14798)
        295          6         45 -7.48688009E-06                    1_GWF-(1,26588)  5.70030313E-07                    1_GWF-(1,14799)
        296          6         46 -6.52318226E-06                    1_GWF-(1,26420)  6.65244051E-07                    1_GWF-(1,14801)
        297          6         47 -6.90503929E-06                    1_GWF-(1,26588)  5.31091052E-07                    1_GWF-(1,14800)
        298          6         48  7.38982405E-06                    1_GWF-(1,11459)  5.44516674E-07                    1_GWF-(1,14799)
        299          6         49  8.40243952E-06                    1_GWF-(1,11454)  5.26030737E-07                    1_GWF-(1,14800)
        300          6         50  1.13382678E-05                    1_GWF-(1,11369)  1.37818964E-06                    1_GWF-(1,14799)
        301          7          1 -1.37862286E-05                    1_GWF-(1,11369)  7.03103776E-07                    1_GWF-(1,14798)
        302          7          2 -9.52967653E-06                    1_GWF-(1,11378)  6.37296229E-07                    1_GWF-(1,14799)
        303          7          3  6.79897538E-06                    1_GWF-(1,26622)  2.08296956E-07                    1_GWF-(1,14800)
        304          7          4  7.34453062E-06                    1_GWF-(1,26649)  4.14221451E-07                    1_GWF-(1,14798)
        305          7          5 -6.64642641E-06                     1_GWF-(1,8186)  7.93771527E-07                    1_GWF-(1,14799)
        306          7          6 -5.49977219E-06                     1_GWF-(1,8021)  6.45188488E-07                    1_GWF-(1,14798)
        307          7          7  5.14262132E-06                    1_GWF-(1,26422)  8.77420064E-07                    1_GWF-(1,14799)
        308          7          8 -6.28360276E-06                    1_GWF-(1,11378)  4.65734314E-07                    1_GWF-(1,14800)
        309          7          9  6.70180781E-06                    1_GWF-(1,20584)  4.97091446E-07                    1_GWF-(1,14801)
        310          7         10 -7.55933237E-06                    1_GWF-(1,26486)  5.86114873E-07                    1_GWF-(1,14799)
        311          7         11  7.29230664E-06                    1_GWF-(1,26486)  4.90913820E-07                    1_GWF-(1,14798)
        312          7         12 -6.01134223E-06                     1_GWF-(1,8210)  4.36858042E-07                    1_GWF-(1,14799)
        313          7         13 -6.12646830E-06                    1_GWF-(1,26422)  3.72854625E-07                    1_GWF-(1,14800)
        314          7         14 -5.72944236E-06                     1_GWF-(1,7976)  3.65526508E-07                    1_GWF-(1,14798)
        315          7         15 -6.23745791E-06                     1_GWF-(1,7960)  6.37346144E-07                    1_GWF-(1,14799)
        316          7         16 -5.32096093E-06                     1_GWF-(1,7950) -7.19892533E-07                    1_GWF-(1,14799)
        317          7         17 -4.01087267E-06                    1_GWF-(1,26665)  8.62287248E-07                    1_GWF-(1,14799)
        318          7         18  4.62057284E-06                    1_GWF-(1,26665) -5.44672156E-07                    1_GWF-(1,14799)
        319          7         19 -6.00964323E-06                    1_GWF-(1,26665)  3.77625336E-07                    1_GWF-(1,14799)
        320          7         20  5.14777949E-06                    1_GWF-(1,26665)  3.68431475E-07                    1_GWF-(1,14799)
        321          7         21 -4.44432768E-06                    1_GWF-(1,26665)  5.58764244E-07                    1_GWF-(1,14798)
        322          7         22 -3.87691839E-06                    1_GWF-(1,26588)  9.29040343E-07                    1_GWF-(1,14799)
        323          7         23  4.09482887E-06                    1_GWF-(1,26588) -7.42639973E-07                    1_GWF-(1,14799)
        324          7         24  4.12623258E-06                    1_GWF-(1,26543)  6.77415021E-07                    1_GWF-(1,14799)
        325          7         25  4.81344752E-06                    1_GWF-(1,26588) -3.20956861E-07                    1_GWF-(1,14799)
        326          7         26  4.31487061E-06                    1_GWF-(1,26543)  1.69118042E-07                    1_GWF-(1,14801)
        327          7         27  3.64734620E-06                    1_GWF-(1,20575)  6.55895405E-07                    1_GWF-(1,14799)
        328          7         28  2.78536437E-06                    1_GWF-(1,26543) -7.69586642E-07                    1_GWF-(1,14799)
        329          7         29 -2.22014403E-06                     1_GWF-(1,8035)  7.11226335E-07                    1_GWF-(1,14799)
        330          7         30 -2.76368732E-06                     1_GWF-(1,8040) -7.17410462E-07                    1_GWF-(1,14799)
        331          7         31 -1.96990364E-06                    1_GWF-(1,21259)  6.08196190E-07                    1_GWF-(1,14799)
        332          7         32 -1.93707280E-06                     1_GWF-(1,8193) -3.70074985E-07                    1_GWF-(1,14801)
        333          7         33 -2.62058355E-06                    1_GWF-(1,26486)  3.46190955E-07                    1_GWF-(1,14801)
        334          7         34 -2.98467910E-06                    1_GWF-(1,26487) -1.36015949E-07                    1_GWF-(1,14801)
        335          7         35 -2.52815526E-06                    1_GWF-(1,26420) -3.19703938E-07                    1_GWF-(1,14799)
        336          7         36 -1.97609812E-06                    1_GWF-(1,26487)  3.35347924E-07                    1_GWF-(1,14799)
        337          7         37 -1.15303276E-06                    1_GWF-(1,26420) -4.43587621E-07                    1_GWF-(1,14801)
        338          7         38  1.11574439E-06                     1_GWF-(1,8091)  5.17133455E-07                    1_GWF-(1,14801)
        339          7         39  1.39193061E-06                     1_GWF-(1,8013) -5.83292730E-07                    1_GWF-(1,14801)
        340          7         40  1.17999327E-06                     1_GWF-(1,8008)  6.36948765E-07                    1_GWF-(1,14801)
        341          7         41 -8.97453532E-07                    1_GWF-(1,22685) -6.39799390E-07                    1_GWF-(1,14801)
        342          8          1  3.96574700E-07                    1_GWF-(1,26663)  5.82675758E-07                    1_GWF-(1,14801)
 --------------------------------------------------------------------------------------------------------------------------------------



 MEMORY MANAGER TOTAL STORAGE BY DATA TYPE, IN MEGABYTES
 -------------------------------
                    ALLOCATED   
 DATA TYPE           MEMORY     
 -------------------------------
 Character        4.66090000E-02
 Logical          4.40000000E-05
 Integer          5.2037920     
 Real             11.901376     
 -------------------------------
 Total            17.151821     
 -------------------------------


 
 Run end date and time (yyyy/mm/dd hh:mm:ss): 2022/04/29 15:36:56
 Elapsed run time:  0.506 Seconds
 Normal termination of simulation.
