                                   MODFLOW 6
                U.S. GEOLOGICAL SURVEY MODULAR HYDROLOGIC MODEL
                            VERSION 6.2.2 07/30/2021

   MODFLOW 6 compiled Jul 31 2021 14:22:53 with IFORT compiler (ver. 19.10.3)

This software has been approved for release by the U.S. Geological 
Survey (USGS). Although the software has been subjected to rigorous 
review, the USGS reserves the right to update the software as needed 
pursuant to further analysis and review. No warranty, expressed or 
implied, is made by the USGS or the U.S. Government as to the 
functionality of the software and related material nor shall the 
fact of release constitute any such warranty. Furthermore, the 
software is released on condition that neither the USGS nor the U.S. 
Government shall be held liable for any damages resulting from its 
authorized or unauthorized use. Also refer to the USGS Water 
Resources Software User Rights Notice for complete use, copyright, 
and distribution information.


System command used to initiate simulation:
mf6

MODFLOW was compiled using uniform precision.

Real Variables
  KIND: 8
  TINY (smallest non-zero value):    2.225074-308
  HUGE (largest value):    1.797693+308
  PRECISION: 15
  BIT SIZE: 64

Integer Variables
  KIND: 4
  HUGE (largest value): 2147483647
  BIT SIZE: 32

Long Integer Variables
  KIND: 8
  HUGE (largest value): 9223372036854775807
  BIT SIZE: 64

Logical Variables
  KIND: 4
  BIT SIZE: 32
 

 OPENED mfsim.nam
 FILE TYPE:NAM   UNIT 1001   STATUS:OLD                 
 FORMAT:FORMATTED              ACCESS:SEQUENTIAL          
 ACTION:READ                

 # File generated by Flopy version 3.3.5 on 04/28/2022 at 15:59:09.

 READING SIMULATION OPTIONS
 END OF SIMULATION OPTIONS

 READING SIMULATION TIMING

 OPENED mfsim.tdis
 FILE TYPE:TDIS   UNIT 1002   STATUS:OLD                 
 FORMAT:FORMATTED              ACCESS:SEQUENTIAL          
 ACTION:READ                


 TDIS -- TEMPORAL DISCRETIZATION PACKAGE,
 VERSION 1 : 11/13/2014 - INPUT READ FROM UNIT 1002
 # File generated by Flopy version 3.3.5 on 04/28/2022 at 15:59:09.
 PROCESSING TDIS OPTIONS
    SIMULATION TIME UNIT IS SECONDS
 END OF TDIS OPTIONS
 PROCESSING TDIS DIMENSIONS
    1 STRESS PERIOD(S) IN SIMULATION
 END OF TDIS DIMENSIONS
 PROCESSING TDIS PERIODDATA


 STRESS PERIOD     LENGTH       TIME STEPS     MULTIPLIER FOR DELT
 ----------------------------------------------------------------------------
        1         6.000000          1                    1.000
 END OF TDIS PERIODDATA
 END OF SIMULATION TIMING

 READING SIMULATION MODELS
    GWF6 model ML will be created as model 1
 END OF SIMULATION MODELS

 READING SIMULATION EXCHANGES
 END OF SIMULATION EXCHANGES

 READING SOLUTIONGROUP

 Creating solution: SLN_1           

 OPENED mfsim.ims
 FILE TYPE:IMS   UNIT 1015   STATUS:OLD                 
 FORMAT:FORMATTED              ACCESS:SEQUENTIAL          
 ACTION:READ                

 END OF SIMULATION SOLUTIONGROUP

 IMS -- ITERATIVE MODEL SOLUTION PACKAGE, VERSION 6, 4/28/2017
         INPUT READ FROM UNIT 1015
 # File generated by Flopy version 3.3.5 on 04/28/2022 at 15:59:09.

 PROCESSING IMS OPTIONS
 END OF IMS OPTIONS

 PROCESSING IMS NONLINEAR
 END OF IMS NONLINEAR DATA
 ***UNDER-RELAXATION WILL NOT BE USED***
 
 ***IMS LINEAR SOLVER WILL BE USED***

 IMSLINEAR -- UNSTRUCTURED LINEAR SOLUTION PACKAGE, VERSION 8, 04/28/2017

 PROCESSING LINEAR DATA
 END OF LINEAR DATA
 
 OUTER ITERATION CONVERGENCE CRITERION    (DVCLOSE) =    0.100000E-04
 MAXIMUM NUMBER OF OUTER ITERATIONS        (MXITER) = 100
 SOLVER PRINTOUT INDEX                     (IPRIMS) = 2
 NONLINEAR ITERATION METHOD            (NONLINMETH) = 0
 LINEAR SOLUTION METHOD                   (LINMETH) = 1

       SOLUTION BY THE        CONJUGATE-GRADIENT       METHOD
 ------------------------------------------------------------------
 MAXIMUM OF 100 CALLS OF SOLUTION ROUTINE
 MAXIMUM OF 50 INTERNAL ITERATIONS PER CALL TO SOLUTION ROUTINE
 LINEAR ACCELERATION METHOD            = CG        
 MATRIX PRECONDITIONING TYPE           = INCOMPLETE LU       
 MATRIX SCALING APPROACH               = NO SCALING          
 MATRIX REORDERING APPROACH            = ORIGINAL ORDERING        
 NUMBER OF ORTHOGONALIZATIONS          = 0
 HEAD CHANGE CRITERION FOR CLOSURE     =    0.10000E-05
 RESIDUAL CHANGE CRITERION FOR CLOSURE =    0.10000E-04
 RESIDUAL CONVERGENCE OPTION           = 1
 RESIDUAL CONVERGENCE NORM             = INFINITY NORM S 
 RELAXATION FACTOR                     =    0.00000E+00



 
    Solving:  Stress period:     1    Time step:     1
 
1
                            STRESS PERIOD NO. 1, LENGTH =   6.000000    
                            -----------------------------------------------
                            NUMBER OF TIME STEPS = 1
                            MULTIPLIER FOR DELT =     1.000
                            INITIAL TIME STEP SIZE =   6.000000    

 SLN_1 OUTER ITERATION SUMMARY
 ----------------------------------------------------------------------------------------------------------
                                OUTER      INNER                    STEP   MAXIMUM CHANGE MODEL-(CELLID) OR
 OUTER ITERATION STEP       ITERATION  ITERATION  MAXIMUM CHANGE SUCCESS             MODEL-PACKAGE-(NUMBER)
 ----------------------------------------------------------------------------------------------------------
 Model                              1         50       44.257024                            1_GWF-(1,26519)
 Model                              2         50      -39.293100                            1_GWF-(1,26519)
 Model                              3         50     -0.92626129                            1_GWF-(1,21055)
 Model                              4         50      0.30270443                            1_GWF-(1,25264)
 Model                              5         50 -4.72194647E-02                            1_GWF-(1,25410)
 Model                              6         50  1.93979960E-02                            1_GWF-(1,25265)
 Model                              7         50 -3.34579068E-03                            1_GWF-(1,25412)
 Model                              8         50  1.27321376E-03                            1_GWF-(1,25265)
 Model                              9         50 -2.24481478E-04                            1_GWF-(1,25412)
 Model                             10         50  8.83554515E-05                            1_GWF-(1,25265)
 Model                             11         37 -1.49267248E-05                            1_GWF-(1,25411)
 Model                             12          1 -8.04001610E-07       *                    1_GWF-(1,26217)
 ----------------------------------------------------------------------------------------------------------


 12 CALLS TO NUMERICAL SOLUTION IN TIME STEP 1 STRESS PERIOD 1
 538 TOTAL ITERATIONS

 SLN_1 INNER ITERATION SUMMARY
 --------------------------------------------------------------------------------------------------------------------------------------
      TOTAL      OUTER      INNER                                                            MAXIMUM                                   
  ITERATION  ITERATION  ITERATION  MAXIMUM CHANGE      MAXIMUM CHANGE MODEL-(CELLID)        RESIDUAL    MAXIMUM RESIDUAL MODEL-(CELLID)
 --------------------------------------------------------------------------------------------------------------------------------------
          1          1          1      -11.850830                    1_GWF-(1,12785)      0.15902125                    1_GWF-(1,11171)
          2          1          2       7.7978845                    1_GWF-(1,26516)      0.21851327                    1_GWF-(1,10969)
          3          1          3       9.4428611                    1_GWF-(1,26565)      0.20944279                    1_GWF-(1,10968)
          4          1          4       8.7173809                    1_GWF-(1,26510)      0.18714957                    1_GWF-(1,10955)
          5          1          5       6.7583840                    1_GWF-(1,26647)      0.18297700                    1_GWF-(1,10869)
          6          1          6       7.1730315                    1_GWF-(1,26649)      0.14814038                    1_GWF-(1,11140)
          7          1          7       5.5394271                    1_GWF-(1,26622)      0.19748089                    1_GWF-(1,10969)
          8          1          8       4.5140974                    1_GWF-(1,26665)      0.16009800                    1_GWF-(1,10963)
          9          1          9       3.8679359                    1_GWF-(1,26647)      0.16287104                    1_GWF-(1,10956)
         10          1         10       4.5318564                    1_GWF-(1,26665)      0.16119042                    1_GWF-(1,10869)
         11          1         11       4.1670052                    1_GWF-(1,26544)      0.13994864                    1_GWF-(1,10969)
         12          1         12       3.0547934                    1_GWF-(1,26486)      0.13977200                    1_GWF-(1,10966)
         13          1         13       2.9780806                    1_GWF-(1,26622)      0.13091293                    1_GWF-(1,10962)
         14          1         14       2.4560789                    1_GWF-(1,26623)      0.12470025                    1_GWF-(1,10969)
         15          1         15       2.3052238                    1_GWF-(1,26622)      0.14180464                    1_GWF-(1,10968)
         16          1         16       1.5299652                    1_GWF-(1,26623)      0.12987812                    1_GWF-(1,10961)
         17          1         17      -1.5774277                    1_GWF-(1,26623)      0.13264851                    1_GWF-(1,10958)
         18          1         18       2.4757282                    1_GWF-(1,26588)      0.14333346                    1_GWF-(1,10969)
         19          1         19      -3.3875578                    1_GWF-(1,26588)      0.13960116                    1_GWF-(1,10968)
         20          1         20      -3.1763151                    1_GWF-(1,26543)      0.12884746                    1_GWF-(1,10963)
         21          1         21      -2.7257480                    1_GWF-(1,26544)      0.11805491                    1_GWF-(1,10958)
         22          1         22      -3.5209307                    1_GWF-(1,26486)      0.12818532                    1_GWF-(1,10969)
         23          1         23      -3.9690062                    1_GWF-(1,26487)      0.11220327                    1_GWF-(1,10965)
         24          1         24      -4.2452198                    1_GWF-(1,26486)      0.12127386                    1_GWF-(1,10963)
         25          1         25      -3.3763359                    1_GWF-(1,26487)      0.10544320                    1_GWF-(1,10955)
         26          1         26      -2.2687254                    1_GWF-(1,26588)  9.13711839E-02                    1_GWF-(1,10869)
         27          1         27       2.2139394                    1_GWF-(1,26420)      0.11281455                    1_GWF-(1,10965)
         28          1         28       1.8227987                    1_GWF-(1,26487)      0.11264332                    1_GWF-(1,10957)
         29          1         29       1.7976908                    1_GWF-(1,26420)      0.10192462                    1_GWF-(1,10872)
         30          1         30       1.9357730                    1_GWF-(1,26422)      0.10216605                    1_GWF-(1,10965)
         31          1         31       2.2007218                    1_GWF-(1,26350)      0.11493609                    1_GWF-(1,10960)
         32          1         32       2.5341317                    1_GWF-(1,26422)  9.67833458E-02                    1_GWF-(1,10958)
         33          1         33       2.4607827                    1_GWF-(1,26350) -7.70650183E-02                    1_GWF-(1,10960)
         34          1         34       2.3812250                    1_GWF-(1,26422)  6.52022852E-02                    1_GWF-(1,10966)
         35          1         35      -2.0341416                    1_GWF-(1,26422)  7.13557054E-02                    1_GWF-(1,10958)
         36          1         36      -1.5464480                    1_GWF-(1,26350)  6.11705696E-02                    1_GWF-(1,10968)
         37          1         37      -1.2342670                    1_GWF-(1,26422)  4.64392217E-02                    1_GWF-(1,10961)
         38          1         38     -0.94284320                    1_GWF-(1,24901) -5.28025782E-02                    1_GWF-(1,10967)
         39          1         39     -0.87143779                    1_GWF-(1,24895)  4.71168472E-02                    1_GWF-(1,10968)
         40          1         40      -1.0654296                    1_GWF-(1,26648)  4.35409908E-02                    1_GWF-(1,10961)
         41          1         41      -1.3936007                    1_GWF-(1,26649)  4.70222774E-02                    1_GWF-(1,10963)
         42          1         42      -1.4908022                    1_GWF-(1,26648) -4.52711664E-02                    1_GWF-(1,10991)
         43          1         43      -1.2983812                    1_GWF-(1,26586) -5.84095530E-02                    1_GWF-(1,11138)
         44          1         44      -1.1579952                    1_GWF-(1,26623)  4.37915073E-02                    1_GWF-(1,11140)
         45          1         45      0.98315175                    1_GWF-(1,26218) -5.24493797E-02                    1_GWF-(1,11140)
         46          1         46     -0.86387478                    1_GWF-(1,21319) -4.66671863E-02                    1_GWF-(1,11138)
         47          1         47      -1.1462230                    1_GWF-(1,26217)  4.76508708E-02                    1_GWF-(1,11139)
         48          1         48      -1.4781667                    1_GWF-(1,26218)  4.86237113E-02                    1_GWF-(1,14868)
         49          1         49      -1.5262378                    1_GWF-(1,26217) -4.92069232E-02                    1_GWF-(1,10990)
         50          1         50      -1.4064057                    1_GWF-(1,26218)  4.36695441E-02                    1_GWF-(1,14868)
         51          2          1      -40.981851                    1_GWF-(1,26519)     -0.14156607                    1_GWF-(1,26519)
         52          2          2      -15.846321                    1_GWF-(1,26513) -4.46388412E-02                    1_GWF-(1,26516)
         53          2          3      -7.5548028                    1_GWF-(1,26637)  3.51742421E-02                    1_GWF-(1,26516)
         54          2          4      -9.1978204                    1_GWF-(1,26665)  3.49489728E-02                    1_GWF-(1,14868)
         55          2          5      -4.8667109                    1_GWF-(1,26622)  2.83551102E-02                    1_GWF-(1,14869)
         56          2          6      -4.6738123                    1_GWF-(1,26589)  4.25021177E-02                    1_GWF-(1,14868)
         57          2          7      -3.7767158                    1_GWF-(1,26543)  3.96919294E-02                    1_GWF-(1,14869)
         58          2          8      -3.5103788                    1_GWF-(1,26486)  6.45304395E-02                    1_GWF-(1,14868)
         59          2          9      -2.3675679                    1_GWF-(1,26487)  4.20224871E-02                    1_GWF-(1,14869)
         60          2         10      -2.2400107                    1_GWF-(1,26350)  4.10247663E-02                    1_GWF-(1,14868)
         61          2         11      -1.8630753                    1_GWF-(1,26348)  1.04549884E-02                    1_GWF-(1,14868)
         62          2         12      -1.6275691                    1_GWF-(1,26217)  2.35949381E-02                    1_GWF-(1,14869)
         63          2         13      -1.0421782                    1_GWF-(1,26218)  3.69613719E-02                    1_GWF-(1,14868)
         64          2         14     -0.68610920                    1_GWF-(1,26649)  3.00028805E-02                    1_GWF-(1,14869)
         65          2         15     -0.72783588                    1_GWF-(1,26622)  2.55633294E-02                    1_GWF-(1,14868)
         66          2         16      0.88536737                    1_GWF-(1,26420)  2.48167486E-02                    1_GWF-(1,14868)
         67          2         17       1.1602573                    1_GWF-(1,26218)  2.80313253E-02                    1_GWF-(1,14869)
         68          2         18      0.95939431                    1_GWF-(1,26217)  3.92367946E-02                    1_GWF-(1,14868)
         69          2         19      0.83913727                    1_GWF-(1,26218)  2.50255129E-02                    1_GWF-(1,14869)
         70          2         20      0.65323976                    1_GWF-(1,26543)  2.29694443E-02                    1_GWF-(1,14868)
         71          2         21      0.92934646                    1_GWF-(1,26588)  1.51181493E-02                    1_GWF-(1,14868)
         72          2         22      0.97774191                    1_GWF-(1,26543)  2.44337474E-02                    1_GWF-(1,14869)
         73          2         23     -0.60709656                    1_GWF-(1,26218)  4.48229753E-02                    1_GWF-(1,14868)
         74          2         24     -0.80856797                    1_GWF-(1,26487)  3.58200503E-02                    1_GWF-(1,14869)
         75          2         25      -1.1050422                    1_GWF-(1,26486)  3.61371313E-02                    1_GWF-(1,14868)
         76          2         26      -1.1003737                    1_GWF-(1,26487)  1.21224818E-02                    1_GWF-(1,14868)
         77          2         27     -0.71096133                    1_GWF-(1,26588)  2.76741804E-02                    1_GWF-(1,14869)
         78          2         28     -0.34748987                    1_GWF-(1,26398)  4.68961291E-02                    1_GWF-(1,14868)
         79          2         29     -0.39105263                    1_GWF-(1,26327)  4.34687730E-02                    1_GWF-(1,14869)
         80          2         30      0.35748435                    1_GWF-(1,26420)  6.68880124E-02                    1_GWF-(1,14868)
         81          2         31     -0.25968373                    1_GWF-(1,26175)  6.11954238E-02                    1_GWF-(1,14869)
         82          2         32     -0.26646057                    1_GWF-(1,26674)  9.24015364E-02                    1_GWF-(1,14868)
         83          2         33     -0.24276211                    1_GWF-(1,26350) -7.67905018E-02                    1_GWF-(1,14868)
         84          2         34     -0.19760019                    1_GWF-(1,25803)  9.92420647E-02                    1_GWF-(1,14868)
         85          2         35      0.31479636                    1_GWF-(1,26422)  6.70487121E-02                    1_GWF-(1,14869)
         86          2         36      0.26587721                    1_GWF-(1,26350)  6.98742529E-02                    1_GWF-(1,14868)
         87          2         37      0.20163609                    1_GWF-(1,26422)  3.84790579E-02                    1_GWF-(1,14869)
         88          2         38      0.20316866                    1_GWF-(1,26544)  2.92360952E-02                    1_GWF-(1,14868)
         89          2         39     -0.21183929                    1_GWF-(1,26649)  2.82142040E-02                    1_GWF-(1,14868)
         90          2         40     -0.29748540                    1_GWF-(1,26486)  5.07152818E-02                    1_GWF-(1,14869)
         91          2         41      0.23189973                    1_GWF-(1,26422)  9.45698781E-02                    1_GWF-(1,14868)
         92          2         42     -0.23859888                    1_GWF-(1,26421)     -0.10998486                    1_GWF-(1,14868)
         93          2         43     -0.35659891                    1_GWF-(1,26350)      0.13753284                    1_GWF-(1,14868)
         94          2         44     -0.21855858                    1_GWF-(1,26486)     -0.12440212                    1_GWF-(1,14868)
         95          2         45     -0.25837296                    1_GWF-(1,26420)      0.13044602                    1_GWF-(1,14868)
         96          2         46     -0.17176293                    1_GWF-(1,26421) -9.31708644E-02                    1_GWF-(1,14868)
         97          2         47     -0.24420281                    1_GWF-(1,26350)  8.06421010E-02                    1_GWF-(1,14868)
         98          2         48     -0.17117358                    1_GWF-(1,26664) -5.48431431E-02                    1_GWF-(1,14868)
         99          2         49     -0.16216751                    1_GWF-(1,26649)  5.55641616E-02                    1_GWF-(1,14868)
        100          2         50     -0.19498705                    1_GWF-(1,26623) -4.12068974E-02                    1_GWF-(1,14868)
        101          3          1     -0.22413479                    1_GWF-(1,16215)  2.60669995E-02                    1_GWF-(1,14868)
        102          3          2      0.16933821                    1_GWF-(1,26586) -5.41360384E-02                    1_GWF-(1,14868)
        103          3          3      0.23743189                    1_GWF-(1,26623)  6.20608085E-02                    1_GWF-(1,14868)
        104          3          4      0.17219036                    1_GWF-(1,26649) -4.68097879E-02                    1_GWF-(1,14868)
        105          3          5     -0.18394856                    1_GWF-(1,16130)  6.19016199E-02                    1_GWF-(1,14868)
        106          3          6      0.15943494                    1_GWF-(1,16130) -6.74704883E-02                    1_GWF-(1,14868)
        107          3          7      0.12954889                    1_GWF-(1,26198)  6.73280020E-02                    1_GWF-(1,14868)
        108          3          8     -0.16268503                    1_GWF-(1,26674) -5.22147500E-02                    1_GWF-(1,14868)
        109          3          9      0.13757183                    1_GWF-(1,16130)  6.06333237E-02                    1_GWF-(1,14868)
        110          3         10      0.13298345                    1_GWF-(1,26350) -4.43402323E-02                    1_GWF-(1,14868)
        111          3         11      0.13231050                    1_GWF-(1,26486)  3.82534551E-02                    1_GWF-(1,14868)
        112          3         12     -0.15832019                    1_GWF-(1,26422)  1.91434555E-02                    1_GWF-(1,14869)
        113          3         13     -0.11440775                    1_GWF-(1,26350)  1.32977487E-02                    1_GWF-(1,14868)
        114          3         14      0.13550187                    1_GWF-(1,26350)  4.77130398E-03                    1_GWF-(1,14868)
        115          3         15     -0.12507782                    1_GWF-(1,26350)  1.11428082E-02                    1_GWF-(1,14869)
        116          3         16     -0.13061302                    1_GWF-(1,26422)  2.40556610E-02                    1_GWF-(1,14868)
        117          3         17      0.10440798                    1_GWF-(1,26422)  2.29025535E-02                    1_GWF-(1,14869)
        118          3         18      0.12119819                    1_GWF-(1,26350)  3.69998300E-02                    1_GWF-(1,14868)
        119          3         19 -7.98214969E-02                    1_GWF-(1,26350) -3.94802317E-02                    1_GWF-(1,14868)
        120          3         20  8.86592200E-02                    1_GWF-(1,26420)  4.74614010E-02                    1_GWF-(1,14868)
        121          3         21 -8.63337258E-02                    1_GWF-(1,26420) -4.18238120E-02                    1_GWF-(1,14868)
        122          3         22 -9.91689841E-02                    1_GWF-(1,25297)  4.43112106E-02                    1_GWF-(1,14868)
        123          3         23     -0.11911006                    1_GWF-(1,25444) -3.34291050E-02                    1_GWF-(1,14868)
        124          3         24      0.13003618                    1_GWF-(1,26588)  2.88291795E-02                    1_GWF-(1,14868)
        125          3         25      0.16411651                    1_GWF-(1,26487)  8.80356983E-03                    1_GWF-(1,14869)
        126          3         26      0.19856152                    1_GWF-(1,26420)  9.59173586E-03                    1_GWF-(1,14869)
        127          3         27      0.21838566                    1_GWF-(1,26487)  2.25783606E-02                    1_GWF-(1,14868)
        128          3         28     -0.14087977                    1_GWF-(1,26487) -1.71176046E-02                    1_GWF-(1,14868)
        129          3         29     -0.16696134                    1_GWF-(1,26486)  1.63228212E-02                    1_GWF-(1,14868)
        130          3         30     -0.15308925                    1_GWF-(1,26544)  3.94273018E-03                    1_GWF-(1,14869)
        131          3         31     -0.15128385                    1_GWF-(1,26543)  5.05044649E-03                    1_GWF-(1,14869)
        132          3         32     -0.14924305                    1_GWF-(1,26588)  1.18329652E-02                    1_GWF-(1,14868)
        133          3         33      0.12042385                    1_GWF-(1,26588)  9.30069399E-03                    1_GWF-(1,14869)
        134          3         34  9.29686059E-02                    1_GWF-(1,26543)  1.05750184E-02                    1_GWF-(1,14868)
        135          3         35     -0.12154002                    1_GWF-(1,26665)  3.11393576E-03                    1_GWF-(1,14869)
        136          3         36      0.11202807                    1_GWF-(1,26665)  2.86172654E-03                    1_GWF-(1,14869)
        137          3         37      0.13162977                    1_GWF-(1,26666)  6.11038104E-03                    1_GWF-(1,14868)
        138          3         38      0.13373521                    1_GWF-(1,26622) -5.00386816E-03                    1_GWF-(1,14868)
        139          3         39  9.69696594E-02                    1_GWF-(1,26217)  4.38129165E-03                    1_GWF-(1,14868)
        140          3         40     -0.13498543                    1_GWF-(1,26665)  1.65147499E-03                    1_GWF-(1,14782)
        141          3         41      0.13345237                    1_GWF-(1,26665) -2.86900977E-03                    1_GWF-(1,14868)
        142          3         42     -0.15518155                    1_GWF-(1,26665)  5.07687851E-03                    1_GWF-(1,14868)
        143          3         43     -0.13804534                    1_GWF-(1,26666) -5.07815290E-03                    1_GWF-(1,14868)
        144          3         44      0.12799932                    1_GWF-(1,26543)  5.24370547E-03                    1_GWF-(1,14868)
        145          3         45      0.14805260                    1_GWF-(1,26649)  3.66895554E-03                    1_GWF-(1,14782)
        146          3         46      0.15140286                    1_GWF-(1,26648)  5.51721137E-03                    1_GWF-(1,14867)
        147          3         47  9.13847233E-02                    1_GWF-(1,26664) -4.61592399E-03                    1_GWF-(1,14867)
        148          3         48  9.43440371E-02                    1_GWF-(1,26217)  4.14502732E-03                    1_GWF-(1,14867)
        149          3         49     -0.10500599                    1_GWF-(1,26648) -5.00580969E-03                    1_GWF-(1,14867)
        150          3         50     -0.10592214                    1_GWF-(1,26218)  4.22269982E-03                    1_GWF-(1,14867)
        151          4          1 -6.84370240E-02                    1_GWF-(1,26217) -3.27747725E-03                    1_GWF-(1,14867)
        152          4          2 -6.98877971E-02                    1_GWF-(1,26218)  3.20032925E-03                    1_GWF-(1,14867)
        153          4          3 -7.63790009E-02                    1_GWF-(1,26217)  2.43660064E-03                    1_GWF-(1,14782)
        154          4          4 -7.68842016E-02                    1_GWF-(1,26218)  3.01058012E-03                    1_GWF-(1,14867)
        155          4          5 -5.56045056E-02                    1_GWF-(1,26422)  1.93616559E-03                    1_GWF-(1,14782)
        156          4          6 -5.04086003E-02                    1_GWF-(1,26218)  1.95552255E-03                    1_GWF-(1,14868)
        157          4          7 -3.86112107E-02                    1_GWF-(1,26485) -1.69781255E-03                    1_GWF-(1,14868)
        158          4          8 -5.23872022E-02                    1_GWF-(1,26665)  1.84577092E-03                    1_GWF-(1,14868)
        159          4          9 -6.31042486E-02                    1_GWF-(1,26666) -1.75682270E-03                    1_GWF-(1,14868)
        160          4         10 -6.21602975E-02                    1_GWF-(1,26665) -1.14678292E-03                    1_GWF-(1,14867)
        161          4         11  6.27892344E-02                    1_GWF-(1,26665)  5.69462050E-04                    1_GWF-(1,10962)
        162          4         12  3.94859129E-02                    1_GWF-(1,26622) -1.23690045E-03                    1_GWF-(1,14868)
        163          4         13  3.96230394E-02                    1_GWF-(1,26623)  1.67859052E-03                    1_GWF-(1,14868)
        164          4         14  5.26407638E-02                    1_GWF-(1,26622)  1.18634544E-03                    1_GWF-(1,14869)
        165          4         15  4.49213886E-02                    1_GWF-(1,26623)  7.05504843E-04                    1_GWF-(1,14782)
        166          4         16  3.66523256E-02                    1_GWF-(1,26665)  1.00876860E-03                    1_GWF-(1,14868)
        167          4         17  2.64673030E-02                    1_GWF-(1,26588) -1.35985460E-03                    1_GWF-(1,14868)
        168          4         18  2.14089831E-02                    1_GWF-(1,26543)  1.53307459E-03                    1_GWF-(1,14868)
        169          4         19 -2.48917410E-02                    1_GWF-(1,26543) -1.51099511E-03                    1_GWF-(1,14868)
        170          4         20 -3.40028173E-02                    1_GWF-(1,26588)  6.44176636E-04                    1_GWF-(1,14868)
        171          4         21 -3.32703818E-02                    1_GWF-(1,26543)  1.06988120E-03                    1_GWF-(1,14868)
        172          4         22 -2.45772720E-02                    1_GWF-(1,26544)  1.77288866E-03                    1_GWF-(1,14869)
        173          4         23 -3.17107535E-02                    1_GWF-(1,26486)  2.76225540E-03                    1_GWF-(1,14868)
        174          4         24 -3.65870917E-02                    1_GWF-(1,26487)  1.98183075E-03                    1_GWF-(1,14869)
        175          4         25 -3.13517093E-02                    1_GWF-(1,26420)  9.29419770E-04                    1_GWF-(1,14868)
        176          4         26 -2.65329534E-02                    1_GWF-(1,26487)  1.66962453E-03                    1_GWF-(1,14868)
        177          4         27 -1.95478726E-02                    1_GWF-(1,26420) -2.75442694E-03                    1_GWF-(1,14868)
        178          4         28 -1.31613005E-02                    1_GWF-(1,26421)  4.46273054E-03                    1_GWF-(1,14868)
        179          4         29  1.18470785E-02                    1_GWF-(1,26543) -4.89696607E-03                    1_GWF-(1,14868)
        180          4         30  1.39560221E-02                    1_GWF-(1,26420)  5.55199448E-03                    1_GWF-(1,14868)
        181          4         31  1.97705267E-02                    1_GWF-(1,26422) -4.68230083E-03                    1_GWF-(1,14868)
        182          4         32  1.98089489E-02                    1_GWF-(1,26350)  5.52686758E-03                    1_GWF-(1,14868)
        183          4         33  1.92928990E-02                    1_GWF-(1,26421) -3.74573219E-03                    1_GWF-(1,14868)
        184          4         34  1.86604128E-02                    1_GWF-(1,26350)  4.07068458E-03                    1_GWF-(1,14868)
        185          4         35  1.92856429E-02                    1_GWF-(1,26422)  2.09284580E-03                    1_GWF-(1,14869)
        186          4         36  1.11379505E-02                    1_GWF-(1,26350)  1.78773481E-03                    1_GWF-(1,14867)
        187          4         37 -1.72438039E-02                    1_GWF-(1,26350)  1.53347660E-03                    1_GWF-(1,14782)
        188          4         38 -1.54881242E-02                    1_GWF-(1,26422)  1.99135629E-03                    1_GWF-(1,14867)
        189          4         39 -1.45833838E-02                    1_GWF-(1,26544)  2.19183367E-03                    1_GWF-(1,14868)
        190          4         40 -1.55016814E-02                    1_GWF-(1,26486)  2.22972620E-03                    1_GWF-(1,14869)
        191          4         41 -1.23514975E-02                    1_GWF-(1,26350)  3.11581405E-03                    1_GWF-(1,14868)
        192          4         42 -9.63746750E-03                    1_GWF-(1,26422) -2.85077313E-03                    1_GWF-(1,14868)
        193          4         43 -9.06352092E-03                    1_GWF-(1,26544)  3.43988883E-03                    1_GWF-(1,14868)
        194          4         44 -7.13572237E-03                    1_GWF-(1,26486) -3.01573396E-03                    1_GWF-(1,14868)
        195          4         45 -6.20476457E-03                    1_GWF-(1,16130)  3.30871892E-03                    1_GWF-(1,14868)
        196          4         46  6.71132255E-03                    1_GWF-(1,16130) -3.14267168E-03                    1_GWF-(1,14868)
        197          4         47  8.63666773E-03                    1_GWF-(1,26672)  3.54256622E-03                    1_GWF-(1,14868)
        198          4         48 -6.20927548E-03                    1_GWF-(1,26623) -3.37363705E-03                    1_GWF-(1,14868)
        199          4         49  7.66003627E-03                    1_GWF-(1,16130)  2.44104785E-03                    1_GWF-(1,14868)
        200          4         50  7.92139156E-03                    1_GWF-(1,26326) -2.45956620E-03                    1_GWF-(1,14868)
        201          5          1 -1.51340726E-02                    1_GWF-(1,11933)  1.72279696E-03                    1_GWF-(1,14868)
        202          5          2 -7.42302725E-03                    1_GWF-(1,11934) -2.39604217E-03                    1_GWF-(1,14868)
        203          5          3 -5.33458603E-03                    1_GWF-(1,26673)  2.49663759E-03                    1_GWF-(1,14868)
        204          5          4 -5.90823376E-03                    1_GWF-(1,26672) -2.46463728E-03                    1_GWF-(1,14868)
        205          5          5  4.97534092E-03                    1_GWF-(1,26422)  2.47308353E-03                    1_GWF-(1,14868)
        206          5          6 -3.50129050E-03                    1_GWF-(1,20231) -2.30457344E-03                    1_GWF-(1,14868)
        207          5          7 -4.54723795E-03                    1_GWF-(1,26350)  2.63976978E-03                    1_GWF-(1,14868)
        208          5          8 -5.81558698E-03                    1_GWF-(1,26422) -2.34882478E-03                    1_GWF-(1,14868)
        209          5          9 -3.83485937E-03                    1_GWF-(1,26350)  2.44398011E-03                    1_GWF-(1,14868)
        210          5         10  5.01096396E-03                    1_GWF-(1,26350) -1.73878252E-03                    1_GWF-(1,14868)
        211          5         11  6.75188843E-03                    1_GWF-(1,26486)  1.72712674E-03                    1_GWF-(1,14868)
        212          5         12 -6.63515631E-03                    1_GWF-(1,26422)  9.80434286E-04                    1_GWF-(1,14869)
        213          5         13  7.85671638E-03                    1_GWF-(1,26422)  6.19230414E-04                    1_GWF-(1,14782)
        214          5         14  8.43953897E-03                    1_GWF-(1,26350)  5.44667978E-04                    1_GWF-(1,14867)
        215          5         15 -7.15112543E-03                    1_GWF-(1,26544)  8.01251529E-04                    1_GWF-(1,14869)
        216          5         16 -8.21731497E-03                    1_GWF-(1,26486)  1.27741420E-03                    1_GWF-(1,14868)
        217          5         17 -8.38030155E-03                    1_GWF-(1,26588)  6.00805258E-04                    1_GWF-(1,14867)
        218          5         18 -7.57110001E-03                    1_GWF-(1,26589)  4.49413950E-04                    1_GWF-(1,14869)
        219          5         19 -8.56000480E-03                    1_GWF-(1,26422)  1.37912336E-03                    1_GWF-(1,14868)
        220          5         20 -9.43175911E-03                    1_GWF-(1,26350) -1.71375816E-03                    1_GWF-(1,14868)
        221          5         21 -6.92025233E-03                    1_GWF-(1,26422)  2.43207165E-03                    1_GWF-(1,14868)
        222          5         22 -4.60849437E-03                    1_GWF-(1,25410) -2.48473106E-03                    1_GWF-(1,14868)
        223          5         23 -4.85431759E-03                    1_GWF-(1,25443)  2.58337704E-03                    1_GWF-(1,14868)
        224          5         24  5.60236336E-03                    1_GWF-(1,26486) -1.92159143E-03                    1_GWF-(1,14868)
        225          5         25  5.30593283E-03                    1_GWF-(1,26487)  1.44201749E-03                    1_GWF-(1,14868)
        226          5         26  6.32659598E-03                    1_GWF-(1,26486)  3.02047721E-04                    1_GWF-(1,14869)
        227          5         27 -7.01146232E-03                    1_GWF-(1,26649)  7.26458687E-04                    1_GWF-(1,14869)
        228          5         28 -6.76796650E-03                    1_GWF-(1,26622)  1.51718730E-03                    1_GWF-(1,14868)
        229          5         29 -4.76512367E-03                    1_GWF-(1,26649) -1.23044289E-03                    1_GWF-(1,14868)
        230          5         30 -4.30155737E-03                    1_GWF-(1,22710)  1.18691288E-03                    1_GWF-(1,14868)
        231          5         31 -3.65018952E-03                    1_GWF-(1,26420) -6.95333282E-04                    1_GWF-(1,14868)
        232          5         32  3.79041636E-03                    1_GWF-(1,26665)  5.86663759E-04                    1_GWF-(1,14868)
        233          5         33  3.99577927E-03                    1_GWF-(1,26647) -3.25191007E-04                    1_GWF-(1,14867)
        234          5         34  5.39900432E-03                    1_GWF-(1,26622)  5.67532879E-04                    1_GWF-(1,14867)
        235          5         35 -7.20324264E-03                    1_GWF-(1,26665)  4.16163356E-04                    1_GWF-(1,14782)
        236          5         36 -5.46697866E-03                    1_GWF-(1,26649)  3.71268383E-04                    1_GWF-(1,14869)
        237          5         37 -4.54058305E-03                    1_GWF-(1,26588)  4.78799711E-04                    1_GWF-(1,14868)
        238          5         38 -4.16363497E-03                    1_GWF-(1,26589) -3.92923103E-04                    1_GWF-(1,14867)
        239          5         39 -5.32079881E-03                    1_GWF-(1,26588)  6.39256994E-04                    1_GWF-(1,14867)
        240          5         40 -4.73693186E-03                    1_GWF-(1,26665) -6.20146955E-04                    1_GWF-(1,14867)
        241          5         41  6.88316656E-03                    1_GWF-(1,26665)  3.78662121E-04                    1_GWF-(1,14867)
        242          5         42  6.54467055E-03                    1_GWF-(1,26588)  2.73582131E-04                    1_GWF-(1,14868)
        243          5         43  5.85053943E-03                    1_GWF-(1,26589) -5.37610410E-04                    1_GWF-(1,14867)
        244          5         44  4.53216643E-03                    1_GWF-(1,26588)  7.93160050E-04                    1_GWF-(1,14867)
        245          5         45  3.27006024E-03                    1_GWF-(1,26665) -9.22727685E-04                    1_GWF-(1,14867)
        246          5         46  2.72563465E-03                    1_GWF-(1,26666)  1.06901381E-03                    1_GWF-(1,14867)
        247          5         47  3.16943365E-03                    1_GWF-(1,26218) -9.44198115E-04                    1_GWF-(1,14867)
        248          5         48  3.85135893E-03                    1_GWF-(1,26217)  9.30956801E-04                    1_GWF-(1,14867)
        249          5         49  3.11452934E-03                    1_GWF-(1,26218) -8.41721723E-04                    1_GWF-(1,14867)
        250          5         50 -2.59149651E-03                    1_GWF-(1,26218)  7.72514317E-04                    1_GWF-(1,14867)
        251          6          1 -7.94768890E-03                    1_GWF-(1,11932) -3.82485072E-04                    1_GWF-(1,14867)
        252          6          2 -3.93180749E-03                    1_GWF-(1,11931)  6.06220148E-04                    1_GWF-(1,14867)
        253          6          3 -3.31627660E-03                    1_GWF-(1,26217) -6.04976336E-04                    1_GWF-(1,14867)
        254          6          4 -3.61522994E-03                    1_GWF-(1,26218)  6.63015199E-04                    1_GWF-(1,14867)
        255          6          5 -2.87459073E-03                    1_GWF-(1,26422) -5.30210299E-04                    1_GWF-(1,14867)
        256          6          6 -2.52103061E-03                    1_GWF-(1,26218)  5.04262745E-04                    1_GWF-(1,14867)
        257          6          7 -1.93889118E-03                    1_GWF-(1,26217) -3.08611290E-04                    1_GWF-(1,14867)
        258          6          8 -2.30984861E-03                    1_GWF-(1,26665)  1.82403270E-04                    1_GWF-(1,14867)
        259          6          9 -2.59169436E-03                    1_GWF-(1,26666)  8.86077578E-05                    1_GWF-(1,14867)
        260          6         10 -2.89023112E-03                    1_GWF-(1,26665) -2.00706239E-04                    1_GWF-(1,14867)
        261          6         11  2.85803148E-03                    1_GWF-(1,26665)  2.22445474E-04                    1_GWF-(1,14867)
        262          6         12  2.46534071E-03                    1_GWF-(1,26588) -1.10103877E-04                    1_GWF-(1,14867)
        263          6         13  1.98923323E-03                    1_GWF-(1,26589)  1.27656734E-04                    1_GWF-(1,14868)
        264          6         14  1.91325071E-03                    1_GWF-(1,26588)  1.13807453E-04                    1_GWF-(1,14869)
        265          6         15  1.84427147E-03                    1_GWF-(1,26649)  1.50146328E-04                    1_GWF-(1,14782)
        266          6         16  2.10034062E-03                    1_GWF-(1,26588)  1.73808460E-04                    1_GWF-(1,14867)
        267          6         17  1.88254747E-03                    1_GWF-(1,26543)  6.81196055E-05                    1_GWF-(1,14782)
        268          6         18  1.27875125E-03                    1_GWF-(1,26588)  7.78729091E-05                    1_GWF-(1,14868)
        269          6         19 -9.79269629E-04                    1_GWF-(1,26665)  1.00536459E-04                    1_GWF-(1,14869)
        270          6         20  9.99451876E-04                    1_GWF-(1,24664)  1.78692847E-04                    1_GWF-(1,14868)
        271          6         21  9.99091143E-04                    1_GWF-(1,24688)  2.32185882E-04                    1_GWF-(1,14867)
        272          6         22 -9.61309638E-04                    1_GWF-(1,26648)  2.46039800E-04                    1_GWF-(1,14868)
        273          6         23 -1.35226482E-03                    1_GWF-(1,26649)  1.88713063E-04                    1_GWF-(1,14867)
        274          6         24 -1.68020236E-03                    1_GWF-(1,26622)  9.59061044E-05                    1_GWF-(1,14868)
        275          6         25 -1.45188313E-03                    1_GWF-(1,26623)  1.11645285E-04                    1_GWF-(1,14782)
        276          6         26 -1.03736996E-03                    1_GWF-(1,26622)  2.29526852E-04                    1_GWF-(1,14867)
        277          6         27  9.02181828E-04                    1_GWF-(1,26622)  2.80407309E-04                    1_GWF-(1,14868)
        278          6         28  8.93701732E-04                    1_GWF-(1,26623) -2.84385960E-04                    1_GWF-(1,14868)
        279          6         29  7.52615890E-04                    1_GWF-(1,26420)  3.00889564E-04                    1_GWF-(1,14868)
        280          6         30  1.03689886E-03                    1_GWF-(1,26421) -1.91691890E-04                    1_GWF-(1,14868)
        281          6         31  1.32052576E-03                    1_GWF-(1,26420)  9.57188571E-05                    1_GWF-(1,14868)
        282          6         32  1.62373690E-03                    1_GWF-(1,26487)  1.52172801E-04                    1_GWF-(1,14868)
        283          6         33  1.46058875E-03                    1_GWF-(1,26486)  2.00480953E-04                    1_GWF-(1,14869)
        284          6         34  1.00474976E-03                    1_GWF-(1,26487)  2.70370872E-04                    1_GWF-(1,14868)
        285          6         35  9.75366078E-04                    1_GWF-(1,26486) -1.83524986E-04                    1_GWF-(1,14868)
        286          6         36  7.64750183E-04                    1_GWF-(1,26350)  1.91504573E-04                    1_GWF-(1,14868)
        287          6         37 -1.08297552E-03                    1_GWF-(1,26350)  1.17358908E-04                    1_GWF-(1,14782)
        288          6         38 -1.09942840E-03                    1_GWF-(1,26422)  1.73926223E-04                    1_GWF-(1,14867)
        289          6         39 -8.29209533E-04                    1_GWF-(1,26350)  1.32880579E-04                    1_GWF-(1,14782)
        290          6         40 -7.40928909E-04                    1_GWF-(1,26422)  1.34968935E-04                    1_GWF-(1,14867)
        291          6         41 -6.96356438E-04                    1_GWF-(1,26350)  1.56250211E-04                    1_GWF-(1,14868)
        292          6         42 -5.45131339E-04                    1_GWF-(1,26422) -1.65959270E-04                    1_GWF-(1,14868)
        293          6         43  4.68540032E-04                    1_GWF-(1,26422)  2.37512517E-04                    1_GWF-(1,14868)
        294          6         44  5.55318549E-04                    1_GWF-(1,26350) -2.14492712E-04                    1_GWF-(1,14868)
        295          6         45  3.09417893E-04                    1_GWF-(1,26422)  2.50602790E-04                    1_GWF-(1,14868)
        296          6         46  2.91016656E-04                    1_GWF-(1,26544) -2.41304585E-04                    1_GWF-(1,14868)
        297          6         47 -3.48521425E-04                    1_GWF-(1,25784)  2.27986050E-04                    1_GWF-(1,14868)
        298          6         48 -3.58558754E-04                    1_GWF-(1,25762) -1.95561181E-04                    1_GWF-(1,14868)
        299          6         49 -3.10652203E-04                    1_GWF-(1,25726)  1.57627263E-04                    1_GWF-(1,14868)
        300          6         50  3.08112347E-04                    1_GWF-(1,26586) -1.45499800E-04                    1_GWF-(1,14868)
        301          7          1 -8.60531397E-04                    1_GWF-(1,11249)  1.16276442E-04                    1_GWF-(1,14868)
        302          7          2 -4.64905237E-04                    1_GWF-(1,11930) -1.59221069E-04                    1_GWF-(1,14868)
        303          7          3  2.72920184E-04                    1_GWF-(1,11249)  1.80003219E-04                    1_GWF-(1,14868)
        304          7          4  3.00259485E-04                    1_GWF-(1,26217) -1.82241053E-04                    1_GWF-(1,14868)
        305          7          5  2.70323478E-04                    1_GWF-(1,26422)  1.98565181E-04                    1_GWF-(1,14868)
        306          7          6 -2.64882634E-04                    1_GWF-(1,26486) -1.81112805E-04                    1_GWF-(1,14868)
        307          7          7 -3.59895646E-04                    1_GWF-(1,26350)  2.01567784E-04                    1_GWF-(1,14868)
        308          7          8 -4.18722872E-04                    1_GWF-(1,26422) -1.59551418E-04                    1_GWF-(1,14868)
        309          7          9  2.90584979E-04                    1_GWF-(1,26588)  1.48505140E-04                    1_GWF-(1,14868)
        310          7         10  3.15016166E-04                    1_GWF-(1,26350)  8.85579107E-05                    1_GWF-(1,14869)
        311          7         11 -3.56150498E-04                    1_GWF-(1,26350)  7.97857120E-05                    1_GWF-(1,14782)
        312          7         12 -3.73087406E-04                    1_GWF-(1,26422)  1.01020070E-04                    1_GWF-(1,14867)
        313          7         13  5.57318587E-04                    1_GWF-(1,26422)  6.32411007E-05                    1_GWF-(1,14782)
        314          7         14 -5.91556389E-04                    1_GWF-(1,26588)  8.66616787E-05                    1_GWF-(1,14868)
        315          7         15 -6.78850234E-04                    1_GWF-(1,26543)  6.16571515E-05                    1_GWF-(1,14869)
        316          7         16 -5.83950532E-04                    1_GWF-(1,26588)  6.71049643E-05                    1_GWF-(1,14782)
        317          7         17 -5.45320588E-04                    1_GWF-(1,26486)  8.61339420E-05                    1_GWF-(1,14867)
        318          7         18 -5.00973897E-04                    1_GWF-(1,26487)  7.38335724E-05                    1_GWF-(1,14869)
        319          7         19 -6.15515899E-04                    1_GWF-(1,26486)  1.16075982E-04                    1_GWF-(1,14868)
        320          7         20 -5.82686329E-04                    1_GWF-(1,26487)  6.94332667E-05                    1_GWF-(1,14869)
        321          7         21 -5.16677451E-04                    1_GWF-(1,26420)  5.48030963E-05                    1_GWF-(1,14782)
        322          7         22 -4.33243166E-04                    1_GWF-(1,26422)  5.68286817E-05                    1_GWF-(1,14868)
        323          7         23  4.50199215E-04                    1_GWF-(1,26665) -8.76556973E-05                    1_GWF-(1,14868)
        324          7         24  4.26642487E-04                    1_GWF-(1,26420)  1.23782467E-04                    1_GWF-(1,14868)
        325          7         25  3.87846025E-04                    1_GWF-(1,26422) -9.13543858E-05                    1_GWF-(1,14868)
        326          7         26  3.11880633E-04                    1_GWF-(1,26544)  9.12383403E-05                    1_GWF-(1,14868)
        327          7         27  3.85098894E-04                    1_GWF-(1,26486)  4.63369654E-05                    1_GWF-(1,14867)
        328          7         28  4.67776283E-04                    1_GWF-(1,26487)  3.98956651E-05                    1_GWF-(1,14869)
        329          7         29  4.07142434E-04                    1_GWF-(1,26420)  9.62101336E-05                    1_GWF-(1,14868)
        330          7         30 -3.89072046E-04                    1_GWF-(1,26420) -9.69718576E-05                    1_GWF-(1,14868)
        331          7         31 -2.62670664E-04                    1_GWF-(1,26421)  9.61992686E-05                    1_GWF-(1,14868)
        332          7         32 -2.43054588E-04                    1_GWF-(1,26217) -6.88632915E-05                    1_GWF-(1,14868)
        333          7         33 -2.35096515E-04                    1_GWF-(1,26421)  6.38906816E-05                    1_GWF-(1,14868)
        334          7         34 -1.91408005E-04                    1_GWF-(1,26348)  5.09765616E-05                    1_GWF-(1,14867)
        335          7         35 -2.19968958E-04                    1_GWF-(1,26184)  4.75567077E-05                    1_GWF-(1,14868)
        336          7         36 -2.42582679E-04                    1_GWF-(1,26649)  2.85531363E-05                    1_GWF-(1,14869)
        337          7         37  1.79904937E-04                    1_GWF-(1,26217)  2.98801386E-05                    1_GWF-(1,14868)
        338          7         38 -2.34505651E-04                    1_GWF-(1,26586)  1.66909432E-05                    1_GWF-(1,14869)
        339          7         39 -2.28751636E-04                    1_GWF-(1,26623)  3.48682436E-05                    1_GWF-(1,14867)
        340          7         40  2.17353883E-04                    1_GWF-(1,26218) -4.62758503E-05                    1_GWF-(1,14867)
        341          7         41  1.92746908E-04                    1_GWF-(1,26315)  6.53601129E-05                    1_GWF-(1,14867)
        342          7         42 -2.71836260E-04                    1_GWF-(1,26217) -6.06648555E-05                    1_GWF-(1,14867)
        343          7         43 -3.07251121E-04                    1_GWF-(1,26665)  5.07075565E-05                    1_GWF-(1,14867)
        344          7         44  3.22600587E-04                    1_GWF-(1,26665)  1.21970113E-05                    1_GWF-(1,14782)
        345          7         45  3.22853040E-04                    1_GWF-(1,26666)  1.80766142E-05                    1_GWF-(1,14782)
        346          7         46  3.38709552E-04                    1_GWF-(1,26665)  4.40523147E-05                    1_GWF-(1,14867)
        347          7         47  2.30433448E-04                    1_GWF-(1,26218) -4.50484817E-05                    1_GWF-(1,14867)
        348          7         48  2.63288086E-04                    1_GWF-(1,26217)  5.07848556E-05                    1_GWF-(1,14867)
        349          7         49  1.97458740E-04                    1_GWF-(1,26218) -3.81811081E-05                    1_GWF-(1,14867)
        350          7         50  1.66905290E-04                    1_GWF-(1,11932)  5.34216477E-05                    1_GWF-(1,14867)
        351          8          1 -1.61178970E-04                    1_GWF-(1,11932) -4.06555812E-05                    1_GWF-(1,14867)
        352          8          2 -1.59743469E-04                    1_GWF-(1,26218)  4.33747338E-05                    1_GWF-(1,14867)
        353          8          3 -2.20962080E-04                    1_GWF-(1,26217) -3.51524880E-05                    1_GWF-(1,14867)
        354          8          4 -2.05396484E-04                    1_GWF-(1,26218)  3.51803656E-05                    1_GWF-(1,14867)
        355          8          5 -1.90500856E-04                    1_GWF-(1,26665)  1.64928143E-05                    1_GWF-(1,14782)
        356          8          6 -2.06946359E-04                    1_GWF-(1,26666)  4.73351823E-06                    1_GWF-(1,10963)
        357          8          7 -2.33589494E-04                    1_GWF-(1,26665)  2.50663230E-05                    1_GWF-(1,14867)
        358          8          8 -1.70165154E-04                    1_GWF-(1,26666) -3.20790025E-05                    1_GWF-(1,14867)
        359          8          9 -1.52141800E-04                    1_GWF-(1,26588)  3.38801798E-05                    1_GWF-(1,14867)
        360          8         10  1.23150488E-04                    1_GWF-(1,26218) -2.27358464E-05                    1_GWF-(1,14867)
        361          8         11  1.11230231E-04                    1_GWF-(1,26543)  1.23830386E-05                    1_GWF-(1,14867)
        362          8         12  1.68037711E-04                    1_GWF-(1,26623)  4.36392969E-06                    1_GWF-(1,14869)
        363          8         13  1.57976686E-04                    1_GWF-(1,26622)  9.00111159E-06                    1_GWF-(1,14782)
        364          8         14  1.43054809E-04                    1_GWF-(1,26649)  1.29642254E-05                    1_GWF-(1,14867)
        365          8         15  1.46535521E-04                    1_GWF-(1,26622)  7.97502585E-06                    1_GWF-(1,14782)
        366          8         16  9.39988659E-05                    1_GWF-(1,26649)  8.96652253E-06                    1_GWF-(1,14868)
        367          8         17  7.72455691E-05                    1_GWF-(1,24678)  7.29590921E-06                    1_GWF-(1,14869)
        368          8         18  7.16720752E-05                    1_GWF-(1,24609)  1.03674480E-05                    1_GWF-(1,14868)
        369          8         19  6.88560313E-05                    1_GWF-(1,24683)  1.12876176E-05                    1_GWF-(1,14867)
        370          8         20 -7.37440407E-05                    1_GWF-(1,26674)  1.44878587E-05                    1_GWF-(1,14868)
        371          8         21 -9.31075302E-05                    1_GWF-(1,26622)  1.39372904E-05                    1_GWF-(1,14867)
        372          8         22 -1.43141630E-04                    1_GWF-(1,26486)  5.39409036E-06                    1_GWF-(1,14868)
        373          8         23 -1.27606475E-04                    1_GWF-(1,26487)  7.19490466E-06                    1_GWF-(1,14868)
        374          8         24 -9.75564330E-05                    1_GWF-(1,26420)  1.33588692E-05                    1_GWF-(1,14867)
        375          8         25 -8.44493083E-05                    1_GWF-(1,26218)  1.77408131E-05                    1_GWF-(1,14868)
        376          8         26 -6.36512249E-05                    1_GWF-(1,26217) -1.64839449E-05                    1_GWF-(1,14868)
        377          8         27 -6.56598870E-05                    1_GWF-(1,26421)  2.15051413E-05                    1_GWF-(1,14868)
        378          8         28  8.42976277E-05                    1_GWF-(1,26588) -1.83219253E-05                    1_GWF-(1,14868)
        379          8         29  7.23058721E-05                    1_GWF-(1,26589)  1.39320146E-05                    1_GWF-(1,14868)
        380          8         30 -7.44281360E-05                    1_GWF-(1,26589)  4.74936376E-06                    1_GWF-(1,14782)
        381          8         31 -1.03399666E-04                    1_GWF-(1,26588)  1.05743269E-05                    1_GWF-(1,14867)
        382          8         32  8.27763755E-05                    1_GWF-(1,26420)  1.71388269E-05                    1_GWF-(1,14868)
        383          8         33  7.66474318E-05                    1_GWF-(1,26421)  1.49581873E-05                    1_GWF-(1,14869)
        384          8         34  6.94888612E-05                    1_GWF-(1,26350)  1.74712676E-05                    1_GWF-(1,14868)
        385          8         35  6.73966971E-05                    1_GWF-(1,26422) -1.15402532E-05                    1_GWF-(1,14868)
        386          8         36 -6.44887734E-05                    1_GWF-(1,26422)  1.12975475E-05                    1_GWF-(1,14868)
        387          8         37 -8.56586688E-05                    1_GWF-(1,26350)  8.01529742E-06                    1_GWF-(1,14782)
        388          8         38 -7.53845570E-05                    1_GWF-(1,26422)  1.10785910E-05                    1_GWF-(1,14867)
        389          8         39 -4.82240353E-05                    1_GWF-(1,26350)  8.24786910E-06                    1_GWF-(1,14782)
        390          8         40 -4.23017344E-05                    1_GWF-(1,26422)  8.22192329E-06                    1_GWF-(1,14867)
        391          8         41 -3.96746926E-05                    1_GWF-(1,26350)  1.21960828E-05                    1_GWF-(1,14868)
        392          8         42 -2.66793126E-05                    1_GWF-(1,26422) -1.28522019E-05                    1_GWF-(1,14868)
        393          8         43  4.03247849E-05                    1_GWF-(1,26422)  1.72239427E-05                    1_GWF-(1,14868)
        394          8         44  3.99878847E-05                    1_GWF-(1,26350) -1.48647018E-05                    1_GWF-(1,14868)
        395          8         45  2.09345571E-05                    1_GWF-(1,26421)  1.52034979E-05                    1_GWF-(1,14868)
        396          8         46  2.59599581E-05                    1_GWF-(1,26420) -1.16245301E-05                    1_GWF-(1,14868)
        397          8         47  3.34417852E-05                    1_GWF-(1,26623)  5.35767487E-06                    1_GWF-(1,14868)
        398          8         48  4.08932301E-05                    1_GWF-(1,26622)  4.34893497E-06                    1_GWF-(1,14868)
        399          8         49 -4.39005216E-05                    1_GWF-(1,26486) -1.14247031E-05                    1_GWF-(1,14868)
        400          8         50  2.72173742E-05                    1_GWF-(1,26622)  1.32526478E-05                    1_GWF-(1,14868)
        401          9          1  2.83155851E-05                    1_GWF-(1,26544) -1.71226089E-05                    1_GWF-(1,14868)
        402          9          2  4.43745539E-05                    1_GWF-(1,26486)  8.08504949E-06                    1_GWF-(1,14868)
        403          9          3 -3.38853503E-05                    1_GWF-(1,26622)  3.04727397E-06                    1_GWF-(1,14868)
        404          9          4 -3.33601975E-05                    1_GWF-(1,26623) -1.13395845E-05                    1_GWF-(1,14868)
        405          9          5 -2.43030519E-05                    1_GWF-(1,26622)  1.30965464E-05                    1_GWF-(1,14868)
        406          9          6 -1.83061841E-05                    1_GWF-(1,26588) -1.11815201E-05                    1_GWF-(1,14868)
        407          9          7 -2.52766348E-05                    1_GWF-(1,26350)  1.33018346E-05                    1_GWF-(1,14868)
        408          9          8 -3.08674196E-05                    1_GWF-(1,26422) -1.09119852E-05                    1_GWF-(1,14868)
        409          9          9 -2.13092506E-05                    1_GWF-(1,26350)  1.06165287E-05                    1_GWF-(1,14868)
        410          9         10  2.07316872E-05                    1_GWF-(1,26350)  6.67335236E-06                    1_GWF-(1,14869)
        411          9         11  2.92170023E-05                    1_GWF-(1,26486)  5.39905604E-06                    1_GWF-(1,14782)
        412          9         12  3.11816785E-05                    1_GWF-(1,26544)  6.95581073E-06                    1_GWF-(1,14867)
        413          9         13  3.76694781E-05                    1_GWF-(1,26422)  4.80610105E-06                    1_GWF-(1,14782)
        414          9         14  3.97480461E-05                    1_GWF-(1,26350)  5.73462553E-06                    1_GWF-(1,14868)
        415          9         15 -3.55507954E-05                    1_GWF-(1,26622)  4.38668423E-06                    1_GWF-(1,14869)
        416          9         16 -3.76642156E-05                    1_GWF-(1,26649)  4.23578239E-06                    1_GWF-(1,14782)
        417          9         17 -3.31130968E-05                    1_GWF-(1,26422)  6.13718379E-06                    1_GWF-(1,14867)
        418          9         18 -4.00299808E-05                    1_GWF-(1,26350)  4.99447542E-06                    1_GWF-(1,14869)
        419          9         19 -5.44186305E-05                    1_GWF-(1,26422)  9.35948470E-06                    1_GWF-(1,14868)
        420          9         20 -5.33823707E-05                    1_GWF-(1,26350) -9.31285459E-06                    1_GWF-(1,14868)
        421          9         21 -3.79802563E-05                    1_GWF-(1,26422)  1.00791595E-05                    1_GWF-(1,14868)
        422          9         22 -2.90506990E-05                    1_GWF-(1,26420) -8.87696424E-06                    1_GWF-(1,14868)
        423          9         23  2.77305360E-05                    1_GWF-(1,26420)  8.18949631E-06                    1_GWF-(1,14868)
        424          9         24  3.06523301E-05                    1_GWF-(1,26421)  5.26118757E-06                    1_GWF-(1,14867)
        425          9         25  3.08143421E-05                    1_GWF-(1,26420)  2.98997375E-06                    1_GWF-(1,14782)
        426          9         26 -3.05519337E-05                    1_GWF-(1,26588)  2.79905091E-06                    1_GWF-(1,14868)
        427          9         27  3.25027739E-05                    1_GWF-(1,26588)  4.30602602E-06                    1_GWF-(1,14869)
        428          9         28 -2.63628932E-05                    1_GWF-(1,26588)  6.43598316E-06                    1_GWF-(1,14868)
        429          9         29  2.06475229E-05                    1_GWF-(1,26486)  5.96492760E-06                    1_GWF-(1,14867)
        430          9         30  1.78327616E-05                    1_GWF-(1,26586)  4.75379801E-06                    1_GWF-(1,14868)
        431          9         31  2.06886321E-05                    1_GWF-(1,26663)  3.46109772E-06                    1_GWF-(1,14867)
        432          9         32  3.16009874E-05                    1_GWF-(1,26665)  1.66592668E-06                    1_GWF-(1,14868)
        433          9         33  2.59861686E-05                    1_GWF-(1,26666)  5.99975769E-07                    1_GWF-(1,14782)
        434          9         34 -2.58621141E-05                    1_GWF-(1,26666)  2.68208662E-06                    1_GWF-(1,14867)
        435          9         35 -3.49273784E-05                    1_GWF-(1,26665)  2.74776474E-06                    1_GWF-(1,14868)
        436          9         36 -2.55049809E-05                    1_GWF-(1,26622)  1.59151280E-06                    1_GWF-(1,14867)
        437          9         37 -2.84623951E-05                    1_GWF-(1,26623)  9.06546726E-07                    1_GWF-(1,14867)
        438          9         38 -2.75960007E-05                    1_GWF-(1,26622)  1.74949492E-06                    1_GWF-(1,14782)
        439          9         39 -3.10273706E-05                    1_GWF-(1,26623)  2.26062032E-06                    1_GWF-(1,14867)
        440          9         40 -2.60884974E-05                    1_GWF-(1,26622)  2.18984515E-06                    1_GWF-(1,14868)
        441          9         41 -1.33390086E-05                    1_GWF-(1,26649) -1.64968710E-06                    1_GWF-(1,14868)
        442          9         42 -1.69806842E-05                    1_GWF-(1,26218)  1.93984895E-06                    1_GWF-(1,14868)
        443          9         43 -1.80509751E-05                    1_GWF-(1,26217)  1.63751716E-06                    1_GWF-(1,14782)
        444          9         44 -1.50019264E-05                    1_GWF-(1,26218)  2.84720030E-06                    1_GWF-(1,14867)
        445          9         45  1.28051571E-05                    1_GWF-(1,26218) -2.86573237E-06                    1_GWF-(1,14867)
        446          9         46  1.53216896E-05                    1_GWF-(1,26422)  3.82614268E-06                    1_GWF-(1,14867)
        447          9         47  1.80933009E-05                    1_GWF-(1,26218) -3.32709210E-06                    1_GWF-(1,14867)
        448          9         48  1.94216684E-05                    1_GWF-(1,26217)  3.85683689E-06                    1_GWF-(1,14867)
        449          9         49  1.51411318E-05                    1_GWF-(1,26218) -3.15439379E-06                    1_GWF-(1,14867)
        450          9         50  1.15015804E-05                    1_GWF-(1,26217)  3.91199126E-06                    1_GWF-(1,14867)
        451         10          1 -1.07329766E-05                    1_GWF-(1,26217) -3.32675402E-06                    1_GWF-(1,14867)
        452         10          2 -1.31096650E-05                    1_GWF-(1,26218)  3.53902835E-06                    1_GWF-(1,14867)
        453         10          3 -1.64829491E-05                    1_GWF-(1,26217) -2.58404797E-06                    1_GWF-(1,14867)
        454         10          4 -1.45391212E-05                    1_GWF-(1,26218)  2.49925778E-06                    1_GWF-(1,14867)
        455         10          5 -1.30301758E-05                    1_GWF-(1,26422)  1.14528260E-06                    1_GWF-(1,14782)
        456         10          6 -1.42858234E-05                    1_GWF-(1,26486)  4.54547397E-07                    1_GWF-(1,14782)
        457         10          7 -1.69927041E-05                    1_GWF-(1,26622)  1.96013995E-06                    1_GWF-(1,14867)
        458         10          8 -1.48899757E-05                    1_GWF-(1,26649) -1.98346878E-06                    1_GWF-(1,14867)
        459         10          9 -1.12975029E-05                    1_GWF-(1,26622)  1.80797710E-06                    1_GWF-(1,14867)
        460         10         10  8.81600783E-06                    1_GWF-(1,26218) -9.31314375E-07                    1_GWF-(1,14867)
        461         10         11  7.64441707E-06                    1_GWF-(1,26649)  6.11593707E-07                    1_GWF-(1,14868)
        462         10         12  7.67274692E-06                    1_GWF-(1,26622)  5.15646178E-07                    1_GWF-(1,14869)
        463         10         13 -9.45348224E-06                    1_GWF-(1,26420)  5.51825794E-07                    1_GWF-(1,14782)
        464         10         14  1.05902473E-05                    1_GWF-(1,26486)  6.30116365E-07                    1_GWF-(1,14867)
        465         10         15  9.67735134E-06                    1_GWF-(1,26487)  3.93126452E-07                    1_GWF-(1,14869)
        466         10         16  7.09754379E-06                    1_GWF-(1,26486)  7.53403188E-07                    1_GWF-(1,14868)
        467         10         17  8.03943105E-06                    1_GWF-(1,26588)  6.74585640E-07                    1_GWF-(1,14867)
        468         10         18  9.23132563E-06                    1_GWF-(1,26543) -6.41120660E-07                    1_GWF-(1,14867)
        469         10         19  9.95993163E-06                    1_GWF-(1,26588)  4.57672284E-07                    1_GWF-(1,14867)
        470         10         20 -1.14910908E-05                    1_GWF-(1,26588)  2.70693467E-07                    1_GWF-(1,14869)
        471         10         21 -8.94052637E-06                    1_GWF-(1,26543)  7.36537401E-07                    1_GWF-(1,14868)
        472         10         22 -6.02818823E-06                    1_GWF-(1,26588)  9.45911057E-07                    1_GWF-(1,14867)
        473         10         23 -4.97432961E-06                    1_GWF-(1,26665)  1.04616581E-06                    1_GWF-(1,14868)
        474         10         24  7.67900314E-06                    1_GWF-(1,26665)  8.41265381E-07                    1_GWF-(1,14867)
        475         10         25  7.27317029E-06                    1_GWF-(1,26666)  5.71037659E-07                    1_GWF-(1,14868)
        476         10         26  6.89881217E-06                    1_GWF-(1,26665)  2.33557644E-07                    1_GWF-(1,10965)
        477         10         27 -6.00908043E-06                    1_GWF-(1,26665)  8.21160528E-07                    1_GWF-(1,14867)
        478         10         28 -5.42918780E-06                    1_GWF-(1,26666)  1.00169612E-06                    1_GWF-(1,14868)
        479         10         29 -3.84659131E-06                    1_GWF-(1,26665)  1.14861675E-06                    1_GWF-(1,14867)
        480         10         30  4.18798384E-06                    1_GWF-(1,26420)  1.38730100E-06                    1_GWF-(1,14868)
        481         10         31  5.34172052E-06                    1_GWF-(1,26486) -1.25040506E-06                    1_GWF-(1,14868)
        482         10         32  5.13376643E-06                    1_GWF-(1,26350)  1.55816420E-06                    1_GWF-(1,14868)
        483         10         33  5.08999113E-06                    1_GWF-(1,26422)  1.12757641E-06                    1_GWF-(1,14869)
        484         10         34  4.47258578E-06                    1_GWF-(1,26350)  1.19525460E-06                    1_GWF-(1,14868)
        485         10         35  3.82922168E-06                    1_GWF-(1,26486) -5.89799245E-07                    1_GWF-(1,14868)
        486         10         36  3.68517839E-06                    1_GWF-(1,26649)  5.27711634E-07                    1_GWF-(1,14867)
        487         10         37  3.86046463E-06                    1_GWF-(1,26622)  6.06507535E-07                    1_GWF-(1,14868)
        488         10         38 -3.91448114E-06                    1_GWF-(1,26350) -6.53166686E-07                    1_GWF-(1,14868)
        489         10         39 -3.82821557E-06                    1_GWF-(1,26422)  7.08260045E-07                    1_GWF-(1,14868)
        490         10         40 -3.11828564E-06                    1_GWF-(1,26350)  4.79349208E-07                    1_GWF-(1,14782)
        491         10         41 -3.66443610E-06                    1_GWF-(1,26422)  6.47549233E-07                    1_GWF-(1,14867)
        492         10         42 -2.74691491E-06                    1_GWF-(1,26350)  5.07948847E-07                    1_GWF-(1,14782)
        493         10         43  3.25162069E-06                    1_GWF-(1,26350)  5.08541420E-07                    1_GWF-(1,14869)
        494         10         44  3.58660893E-06                    1_GWF-(1,26422)  8.20021063E-07                    1_GWF-(1,14868)
        495         10         45  2.17035251E-06                    1_GWF-(1,26350) -7.38667249E-07                    1_GWF-(1,14868)
        496         10         46  2.29507979E-06                    1_GWF-(1,26486)  7.63397398E-07                    1_GWF-(1,14868)
        497         10         47  2.14346642E-06                    1_GWF-(1,26622) -5.24263036E-07                    1_GWF-(1,14868)
        498         10         48  3.36706638E-06                    1_GWF-(1,26649)  2.91455369E-07                    1_GWF-(1,14867)
        499         10         49  3.11047566E-06                    1_GWF-(1,26588)  4.32944402E-07                    1_GWF-(1,14868)
        500         10         50  1.96799724E-06                    1_GWF-(1,26649) -6.80910378E-07                    1_GWF-(1,14868)
        501         11          1  2.24626854E-06                    1_GWF-(1,26487)  1.26523925E-06                    1_GWF-(1,14868)
        502         11          2  3.22062925E-06                    1_GWF-(1,26420) -4.66806619E-07                    1_GWF-(1,14868)
        503         11          3 -2.57322435E-06                    1_GWF-(1,26649) -3.73926445E-07                    1_GWF-(1,14868)
        504         11          4 -2.29489515E-06                    1_GWF-(1,26487)  9.05245269E-07                    1_GWF-(1,14868)
        505         11          5 -2.91940348E-06                    1_GWF-(1,26486) -1.09146900E-06                    1_GWF-(1,14868)
        506         11          6 -2.22558122E-06                    1_GWF-(1,26544)  1.15356007E-06                    1_GWF-(1,14868)
        507         11          7 -1.89754213E-06                    1_GWF-(1,26422) -7.28448614E-07                    1_GWF-(1,14868)
        508         11          8 -1.87294174E-06                    1_GWF-(1,26350)  4.94053255E-07                    1_GWF-(1,14868)
        509         11          9 -1.67587749E-06                    1_GWF-(1,26486)  2.57109098E-07                    1_GWF-(1,14867)
        510         11         10  1.87442743E-06                    1_GWF-(1,26588)  2.82172251E-07                    1_GWF-(1,14782)
        511         11         11  2.92743031E-06                    1_GWF-(1,26487)  4.90446872E-07                    1_GWF-(1,14868)
        512         11         12  2.83042988E-06                    1_GWF-(1,26486) -3.43406847E-07                    1_GWF-(1,14868)
        513         11         13  2.19397173E-06                    1_GWF-(1,26649)  2.18048892E-07                    1_GWF-(1,14868)
        514         11         14  3.27476432E-06                    1_GWF-(1,26350)  4.23186180E-07                    1_GWF-(1,14867)
        515         11         15  2.64103112E-06                    1_GWF-(1,26422)  3.14080748E-07                    1_GWF-(1,14782)
        516         11         16 -3.38245517E-06                    1_GWF-(1,26588)  4.96268298E-07                    1_GWF-(1,14868)
        517         11         17 -3.12166261E-06                    1_GWF-(1,26589)  2.89436667E-07                    1_GWF-(1,14869)
        518         11         18 -3.50786269E-06                    1_GWF-(1,26588)  3.45982067E-07                    1_GWF-(1,14782)
        519         11         19 -3.27980464E-06                    1_GWF-(1,26422)  4.64979082E-07                    1_GWF-(1,14867)
        520         11         20 -3.83619642E-06                    1_GWF-(1,26350) -4.88978756E-07                    1_GWF-(1,14868)
        521         11         21 -2.77988898E-06                    1_GWF-(1,26422)  5.74652664E-07                    1_GWF-(1,14868)
        522         11         22  1.89562730E-06                    1_GWF-(1,26665) -4.73106611E-07                    1_GWF-(1,14868)
        523         11         23  2.36655368E-06                    1_GWF-(1,26666)  4.49702570E-07                    1_GWF-(1,14868)
        524         11         24  2.62085675E-06                    1_GWF-(1,26665)  3.64100327E-07                    1_GWF-(1,14867)
        525         11         25 -2.32612413E-06                    1_GWF-(1,26665)  2.25607138E-07                    1_GWF-(1,14782)
        526         11         26  2.49801268E-06                    1_GWF-(1,26350)  3.28674180E-07                    1_GWF-(1,14868)
        527         11         27 -2.25883855E-06                    1_GWF-(1,26665) -3.62009552E-07                    1_GWF-(1,14868)
        528         11         28  1.98621419E-06                    1_GWF-(1,26420)  5.19030837E-07                    1_GWF-(1,14868)
        529         11         29 -1.49223521E-06                    1_GWF-(1,26420) -4.11387000E-07                    1_GWF-(1,14868)
        530         11         30  1.93579244E-06                    1_GWF-(1,26649)  2.57750025E-07                    1_GWF-(1,14782)
        531         11         31  2.22059958E-06                    1_GWF-(1,26622)  1.08794715E-07                    1_GWF-(1,14868)
        532         11         32 -1.86726396E-06                    1_GWF-(1,26487) -2.86368415E-07                    1_GWF-(1,14868)
        533         11         33 -1.50867059E-06                    1_GWF-(1,26486)  3.85442269E-07                    1_GWF-(1,14868)
        534         11         34  1.26793729E-06                    1_GWF-(1,26623)  3.66162005E-07                    1_GWF-(1,14867)
        535         11         35 -1.21876944E-06                    1_GWF-(1,26486)  3.37802382E-07                    1_GWF-(1,14868)
        536         11         36 -1.13812938E-06                    1_GWF-(1,26622)  2.88131578E-07                    1_GWF-(1,14867)
        537         11         37 -9.48920924E-07                    1_GWF-(1,26623)  1.90188907E-07                    1_GWF-(1,14868)
        538         12          1 -8.04001611E-07                    1_GWF-(1,26217)  2.20579145E-07                    1_GWF-(1,14867)
 --------------------------------------------------------------------------------------------------------------------------------------



 MEMORY MANAGER TOTAL STORAGE BY DATA TYPE, IN MEGABYTES
 -------------------------------
                    ALLOCATED   
 DATA TYPE           MEMORY     
 -------------------------------
 Character        4.66090000E-02
 Logical          4.40000000E-05
 Integer          5.2037920     
 Real             11.901376     
 -------------------------------
 Total            17.151821     
 -------------------------------


 
 Run end date and time (yyyy/mm/dd hh:mm:ss): 2022/05/27 18:31:23
 Elapsed run time:  0.591 Seconds
 Normal termination of simulation.
