                                   MODFLOW 6
                U.S. GEOLOGICAL SURVEY MODULAR HYDROLOGIC MODEL
                            VERSION 6.2.2 07/30/2021

   MODFLOW 6 compiled Jul 31 2021 14:22:53 with IFORT compiler (ver. 19.10.3)

This software has been approved for release by the U.S. Geological 
Survey (USGS). Although the software has been subjected to rigorous 
review, the USGS reserves the right to update the software as needed 
pursuant to further analysis and review. No warranty, expressed or 
implied, is made by the USGS or the U.S. Government as to the 
functionality of the software and related material nor shall the 
fact of release constitute any such warranty. Furthermore, the 
software is released on condition that neither the USGS nor the U.S. 
Government shall be held liable for any damages resulting from its 
authorized or unauthorized use. Also refer to the USGS Water 
Resources Software User Rights Notice for complete use, copyright, 
and distribution information.


System command used to initiate simulation:
mf6

MODFLOW was compiled using uniform precision.

Real Variables
  KIND: 8
  TINY (smallest non-zero value):    2.225074-308
  HUGE (largest value):    1.797693+308
  PRECISION: 15
  BIT SIZE: 64

Integer Variables
  KIND: 4
  HUGE (largest value): 2147483647
  BIT SIZE: 32

Long Integer Variables
  KIND: 8
  HUGE (largest value): 9223372036854775807
  BIT SIZE: 64

Logical Variables
  KIND: 4
  BIT SIZE: 32
 

 OPENED mfsim.nam
 FILE TYPE:NAM   UNIT 1001   STATUS:OLD                 
 FORMAT:FORMATTED              ACCESS:SEQUENTIAL          
 ACTION:READ                

 # File generated by Flopy version 3.3.5 on 05/30/2022 at 17:40:44.

 READING SIMULATION OPTIONS
 END OF SIMULATION OPTIONS

 READING SIMULATION TIMING

 OPENED mfsim.tdis
 FILE TYPE:TDIS   UNIT 1002   STATUS:OLD                 
 FORMAT:FORMATTED              ACCESS:SEQUENTIAL          
 ACTION:READ                


 TDIS -- TEMPORAL DISCRETIZATION PACKAGE,
 VERSION 1 : 11/13/2014 - INPUT READ FROM UNIT 1002
 # File generated by Flopy version 3.3.5 on 05/30/2022 at 17:40:44.
 PROCESSING TDIS OPTIONS
    SIMULATION TIME UNIT IS SECONDS
 END OF TDIS OPTIONS
 PROCESSING TDIS DIMENSIONS
    1 STRESS PERIOD(S) IN SIMULATION
 END OF TDIS DIMENSIONS
 PROCESSING TDIS PERIODDATA


 STRESS PERIOD     LENGTH       TIME STEPS     MULTIPLIER FOR DELT
 ----------------------------------------------------------------------------
        1         6.000000          1                    1.000
 END OF TDIS PERIODDATA
 END OF SIMULATION TIMING

 READING SIMULATION MODELS
    GWF6 model ML will be created as model 1
 END OF SIMULATION MODELS

 READING SIMULATION EXCHANGES
 END OF SIMULATION EXCHANGES

 READING SOLUTIONGROUP

 Creating solution: SLN_1           

 OPENED mfsim.ims
 FILE TYPE:IMS   UNIT 1015   STATUS:OLD                 
 FORMAT:FORMATTED              ACCESS:SEQUENTIAL          
 ACTION:READ                

 END OF SIMULATION SOLUTIONGROUP

 IMS -- ITERATIVE MODEL SOLUTION PACKAGE, VERSION 6, 4/28/2017
         INPUT READ FROM UNIT 1015
 # File generated by Flopy version 3.3.5 on 05/30/2022 at 17:40:44.

 PROCESSING IMS OPTIONS
 END OF IMS OPTIONS

 PROCESSING IMS NONLINEAR
 END OF IMS NONLINEAR DATA
 ***UNDER-RELAXATION WILL NOT BE USED***
 
 ***IMS LINEAR SOLVER WILL BE USED***

 IMSLINEAR -- UNSTRUCTURED LINEAR SOLUTION PACKAGE, VERSION 8, 04/28/2017

 PROCESSING LINEAR DATA
 END OF LINEAR DATA
 
 OUTER ITERATION CONVERGENCE CRITERION    (DVCLOSE) =    0.100000E-04
 MAXIMUM NUMBER OF OUTER ITERATIONS        (MXITER) = 100
 SOLVER PRINTOUT INDEX                     (IPRIMS) = 2
 NONLINEAR ITERATION METHOD            (NONLINMETH) = 0
 LINEAR SOLUTION METHOD                   (LINMETH) = 1

       SOLUTION BY THE        CONJUGATE-GRADIENT       METHOD
 ------------------------------------------------------------------
 MAXIMUM OF 100 CALLS OF SOLUTION ROUTINE
 MAXIMUM OF 50 INTERNAL ITERATIONS PER CALL TO SOLUTION ROUTINE
 LINEAR ACCELERATION METHOD            = CG        
 MATRIX PRECONDITIONING TYPE           = INCOMPLETE LU       
 MATRIX SCALING APPROACH               = NO SCALING          
 MATRIX REORDERING APPROACH            = ORIGINAL ORDERING        
 NUMBER OF ORTHOGONALIZATIONS          = 0
 HEAD CHANGE CRITERION FOR CLOSURE     =    0.10000E-05
 RESIDUAL CHANGE CRITERION FOR CLOSURE =    0.10000E-04
 RESIDUAL CONVERGENCE OPTION           = 1
 RESIDUAL CONVERGENCE NORM             = INFINITY NORM S 
 RELAXATION FACTOR                     =    0.00000E+00



 
    Solving:  Stress period:     1    Time step:     1
 
1
                            STRESS PERIOD NO. 1, LENGTH =   6.000000    
                            -----------------------------------------------
                            NUMBER OF TIME STEPS = 1
                            MULTIPLIER FOR DELT =     1.000
                            INITIAL TIME STEP SIZE =   6.000000    

 SLN_1 OUTER ITERATION SUMMARY
 ----------------------------------------------------------------------------------------------------------
                                OUTER      INNER                    STEP   MAXIMUM CHANGE MODEL-(CELLID) OR
 OUTER ITERATION STEP       ITERATION  ITERATION  MAXIMUM CHANGE SUCCESS             MODEL-PACKAGE-(NUMBER)
 ----------------------------------------------------------------------------------------------------------
 Model                              1         50       99.771071                            1_GWF-(1,26519)
 Model                              2         50      -94.838224                            1_GWF-(1,26519)
 Model                              3         50     -0.29192795                            1_GWF-(1,25363)
 Model                              4         50 -4.66898387E-02                            1_GWF-(1,21392)
 Model                              5         50 -9.40613510E-03                            1_GWF-(1,11936)
 Model                              6         50 -4.77797981E-04                            1_GWF-(1,21292)
 Model                              7         50 -6.14136945E-05                            1_GWF-(1,25300)
 Model                              8         19 -5.41269094E-06                            1_GWF-(1,25563)
 Model                              9          1 -9.57179147E-07       *                    1_GWF-(1,26486)
 ----------------------------------------------------------------------------------------------------------


 9 CALLS TO NUMERICAL SOLUTION IN TIME STEP 1 STRESS PERIOD 1
 370 TOTAL ITERATIONS

 SLN_1 INNER ITERATION SUMMARY
 --------------------------------------------------------------------------------------------------------------------------------------
      TOTAL      OUTER      INNER                                                            MAXIMUM                                   
  ITERATION  ITERATION  ITERATION  MAXIMUM CHANGE      MAXIMUM CHANGE MODEL-(CELLID)        RESIDUAL    MAXIMUM RESIDUAL MODEL-(CELLID)
 --------------------------------------------------------------------------------------------------------------------------------------
          1          1          1       14.925116                    1_GWF-(1,26517)      0.58575004                    1_GWF-(1,11179)
          2          1          2       16.756627                    1_GWF-(1,26516)     -0.40897101                    1_GWF-(1,11179)
          3          1          3       21.007004                    1_GWF-(1,26563)     -0.33762601                    1_GWF-(1,11161)
          4          1          4       21.091011                    1_GWF-(1,26513)      0.33473523                    1_GWF-(1,11178)
          5          1          5       16.293920                    1_GWF-(1,26647)     -0.27798738                    1_GWF-(1,11208)
          6          1          6       20.126469                    1_GWF-(1,26649)     -0.30229564                    1_GWF-(1,11207)
          7          1          7       17.327901                    1_GWF-(1,26622)      0.23839598                    1_GWF-(1,11207)
          8          1          8       11.551719                    1_GWF-(1,26623)     -0.17323346                    1_GWF-(1,11207)
          9          1          9       10.583216                    1_GWF-(1,26589)      0.10848394                    1_GWF-(1,10957)
         10          1         10       9.8920995                    1_GWF-(1,26486)     -0.14189262                    1_GWF-(1,11158)
         11          1         11       9.3666113                    1_GWF-(1,26544)     -0.15310766                    1_GWF-(1,11207)
         12          1         12       7.8789924                    1_GWF-(1,26420)      0.11414417                    1_GWF-(1,11196)
         13          1         13       6.6582120                    1_GWF-(1,26422)  6.78520369E-02                    1_GWF-(1,11194)
         14          1         14      -6.2479516                    1_GWF-(1,26622)     -0.10090801                    1_GWF-(1,11153)
         15          1         15      -5.3248064                    1_GWF-(1,26623) -6.72349623E-02                    1_GWF-(1,11194)
         16          1         16      -4.3968776                    1_GWF-(1,26622)  8.61165397E-02                    1_GWF-(1,11180)
         17          1         17      -4.6848726                    1_GWF-(1,26588) -8.41760589E-02                    1_GWF-(1,11153)
         18          1         18      -5.6897933                    1_GWF-(1,26350) -8.60262841E-02                    1_GWF-(1,11194)
         19          1         19      -6.8435957                    1_GWF-(1,26588)  7.22715587E-02                    1_GWF-(1,11194)
         20          1         20      -5.8470352                    1_GWF-(1,26543) -4.84600683E-02                    1_GWF-(1,11155)
         21          1         21      -4.6481918                    1_GWF-(1,26487) -7.44167676E-02                    1_GWF-(1,11194)
         22          1         22      -5.3330662                    1_GWF-(1,26486)  5.43796340E-02                    1_GWF-(1,11200)
         23          1         23      -4.5752693                    1_GWF-(1,26487)  4.89453896E-02                    1_GWF-(1,11151)
         24          1         24      -4.2844040                    1_GWF-(1,26486) -4.56960100E-02                    1_GWF-(1,11194)
         25          1         25       3.9048060                    1_GWF-(1,26420) -4.78258539E-02                    1_GWF-(1,11109)
         26          1         26       4.3919167                    1_GWF-(1,26487)  4.82262821E-02                    1_GWF-(1,11109)
         27          1         27       4.0450591                    1_GWF-(1,26420)  4.02345011E-02                    1_GWF-(1,11108)
         28          1         28       2.4219665                    1_GWF-(1,26487) -4.02850386E-02                    1_GWF-(1,11195)
         29          1         29       2.1510100                    1_GWF-(1,26588)  4.61415639E-02                    1_GWF-(1,11109)
         30          1         30       2.9438903                    1_GWF-(1,26623)  4.79293991E-02                    1_GWF-(1,11110)
         31          1         31       2.5773877                    1_GWF-(1,26586) -4.23025786E-02                    1_GWF-(1,11150)
         32          1         32       2.2403147                    1_GWF-(1,26648) -3.46829396E-02                    1_GWF-(1,11065)
         33          1         33      -2.0886639                    1_GWF-(1,26422)  2.65267429E-02                    1_GWF-(1,11148)
         34          1         34       2.0447609                    1_GWF-(1,26665) -3.00218422E-02                    1_GWF-(1,11108)
         35          1         35      -1.8672018                    1_GWF-(1,26422) -3.01820099E-02                    1_GWF-(1,11158)
         36          1         36       1.5221739                    1_GWF-(1,26422)  3.11300157E-02                    1_GWF-(1,11065)
         37          1         37       1.4946919                    1_GWF-(1,26350)  3.54997738E-02                    1_GWF-(1,11200)
         38          1         38       1.2511649                    1_GWF-(1,26422)  3.65677638E-02                    1_GWF-(1,11203)
         39          1         39      -1.4026716                    1_GWF-(1,26649)  3.56911564E-02                    1_GWF-(1,11200)
         40          1         40      -1.1531101                    1_GWF-(1,26648) -3.10695842E-02                    1_GWF-(1,11206)
         41          1         41     -0.92545231                    1_GWF-(1,26649) -2.46487990E-02                    1_GWF-(1,11196)
         42          1         42     -0.73461284                    1_GWF-(1,26648) -2.42832365E-02                    1_GWF-(1,11195)
         43          1         43     -0.71020171                    1_GWF-(1,26586)  2.71259352E-02                    1_GWF-(1,11195)
         44          1         44     -0.74975847                    1_GWF-(1,26543)  2.43718232E-02                    1_GWF-(1,11112)
         45          1         45     -0.62617018                    1_GWF-(1,26542)  2.30519579E-02                    1_GWF-(1,11158)
         46          1         46     -0.85533707                    1_GWF-(1,26218)  3.09330398E-02                    1_GWF-(1,11153)
         47          1         47      -1.1828520                    1_GWF-(1,26217) -2.67947550E-02                    1_GWF-(1,11153)
         48          1         48      -1.3250671                    1_GWF-(1,26218) -2.06043462E-02                    1_GWF-(1,11152)
         49          1         49      -1.2764426                    1_GWF-(1,26217) -2.22786185E-02                    1_GWF-(1,11150)
         50          1         50      -1.1703407                    1_GWF-(1,26218) -2.18923542E-02                    1_GWF-(1,11153)
         51          2          1      -97.761760                    1_GWF-(1,26519)     -0.18792572                    1_GWF-(1,26458)
         52          2          2      -36.594285                    1_GWF-(1,26513) -5.26254934E-02                    1_GWF-(1,26516)
         53          2          3      -20.750105                    1_GWF-(1,26637)  5.26303648E-02                    1_GWF-(1,26516)
         54          2          4      -22.136330                    1_GWF-(1,26665) -1.92430407E-02                    1_GWF-(1,26519)
         55          2          5      -12.198042                    1_GWF-(1,26622)  2.00046709E-02                    1_GWF-(1,26519)
         56          2          6      -11.412217                    1_GWF-(1,26589)  1.44802323E-02                    1_GWF-(1,26516)
         57          2          7      -9.9262627                    1_GWF-(1,26543) -1.17919461E-02                    1_GWF-(1,26516)
         58          2          8      -7.9669352                    1_GWF-(1,26486)  8.89672591E-03                    1_GWF-(1,26519)
         59          2          9      -5.3232765                    1_GWF-(1,26487)  6.66443314E-03                    1_GWF-(1,26665)
         60          2         10      -4.5933346                    1_GWF-(1,26421) -5.74266195E-03                    1_GWF-(1,26665)
         61          2         11      -3.9919599                    1_GWF-(1,26350)  4.30328610E-03                    1_GWF-(1,26519)
         62          2         12      -3.0041160                    1_GWF-(1,26217)  3.50524977E-03                    1_GWF-(1,26516)
         63          2         13      -1.5506671                    1_GWF-(1,26622) -2.33391165E-03                    1_GWF-(1,26622)
         64          2         14      -1.2505606                    1_GWF-(1,26623) -2.20863693E-03                    1_GWF-(1,26563)
         65          2         15      -1.1660893                    1_GWF-(1,26622)  3.15699212E-03                    1_GWF-(1,26516)
         66          2         16      -1.5616593                    1_GWF-(1,25730)  4.08583281E-03                    1_GWF-(1,26599)
         67          2         17       1.3727105                    1_GWF-(1,26350) -2.93137112E-03                    1_GWF-(1,26563)
         68          2         18       1.3257049                    1_GWF-(1,26422) -1.98327228E-03                    1_GWF-(1,26588)
         69          2         19       1.2041175                    1_GWF-(1,26588)  1.94671359E-03                    1_GWF-(1,26588)
         70          2         20       1.0198457                    1_GWF-(1,26543) -2.31228785E-03                    1_GWF-(1,26563)
         71          2         21       1.0845522                    1_GWF-(1,26544)  1.97315063E-03                    1_GWF-(1,14801)
         72          2         22       1.1614574                    1_GWF-(1,26543)  2.44376502E-03                    1_GWF-(1,26601)
         73          2         23     -0.89305302                    1_GWF-(1,26218) -2.69008324E-03                    1_GWF-(1,26563)
         74          2         24      -1.4595416                    1_GWF-(1,26487)  2.64487761E-03                    1_GWF-(1,26486)
         75          2         25      -1.6374422                    1_GWF-(1,26486)  2.68152046E-03                    1_GWF-(1,26563)
         76          2         26      -1.5597632                    1_GWF-(1,26487) -2.71917602E-03                    1_GWF-(1,26563)
         77          2         27     -0.93287131                    1_GWF-(1,26420) -1.87861496E-03                    1_GWF-(1,26562)
         78          2         28      0.85917767                    1_GWF-(1,26217)  2.15425708E-03                    1_GWF-(1,26563)
         79          2         29      0.67366212                    1_GWF-(1,26218) -1.72271150E-03                    1_GWF-(1,26563)
         80          2         30      0.68424676                    1_GWF-(1,26420) -1.98276964E-03                    1_GWF-(1,26562)
         81          2         31     -0.47282245                    1_GWF-(1,26674)  1.35522820E-03                    1_GWF-(1,26562)
         82          2         32     -0.45740298                    1_GWF-(1,26421) -1.38984125E-03                    1_GWF-(1,26516)
         83          2         33     -0.57095721                    1_GWF-(1,26350) -1.60777600E-03                    1_GWF-(1,26562)
         84          2         34      0.58239537                    1_GWF-(1,26350)  1.86801524E-03                    1_GWF-(1,26562)
         85          2         35      0.86251522                    1_GWF-(1,26422) -1.30813508E-03                    1_GWF-(1,10966)
         86          2         36      0.55721115                    1_GWF-(1,26350) -1.70861770E-03                    1_GWF-(1,26562)
         87          2         37     -0.53319194                    1_GWF-(1,26350)  1.95968383E-03                    1_GWF-(1,26562)
         88          2         38     -0.34786514                    1_GWF-(1,26422)  1.35006797E-03                    1_GWF-(1,14960)
         89          2         39     -0.34349245                    1_GWF-(1,26544)  1.62986508E-03                    1_GWF-(1,14961)
         90          2         40     -0.37300493                    1_GWF-(1,26486) -2.05715442E-03                    1_GWF-(1,10966)
         91          2         41     -0.25897844                    1_GWF-(1,26420)  2.05990906E-03                    1_GWF-(1,14800)
         92          2         42     -0.20780748                    1_GWF-(1,26588)  2.41628064E-03                    1_GWF-(1,14801)
         93          2         43     -0.25447648                    1_GWF-(1,25852)  3.15142295E-03                    1_GWF-(1,10966)
         94          2         44     -0.23225542                    1_GWF-(1,26217)  3.13924071E-03                    1_GWF-(1,14801)
         95          2         45     -0.21026263                    1_GWF-(1,26420)  5.13851839E-03                    1_GWF-(1,10966)
         96          2         46     -0.19710564                    1_GWF-(1,26569)  4.09058935E-03                    1_GWF-(1,10961)
         97          2         47      0.18672944                    1_GWF-(1,26193)  6.20820840E-03                    1_GWF-(1,10966)
         98          2         48      0.14530374                    1_GWF-(1,26398)  4.60563092E-03                    1_GWF-(1,10961)
         99          2         49      0.14415087                    1_GWF-(1,22773)  5.99639053E-03                    1_GWF-(1,10966)
        100          2         50      0.14806886                    1_GWF-(1,26196)  4.29515333E-03                    1_GWF-(1,10961)
        101          3          1  8.20728533E-02                    1_GWF-(1,22783) -8.23125055E-03                    1_GWF-(1,11936)
        102          3          2      0.15049467                    1_GWF-(1,22783)  4.98820285E-03                    1_GWF-(1,10961)
        103          3          3      0.10557684                    1_GWF-(1,26649)  8.55254947E-03                    1_GWF-(1,11936)
        104          3          4     -0.15078613                    1_GWF-(1,22783) -5.62804919E-03                    1_GWF-(1,11936)
        105          3          5      0.14317034                    1_GWF-(1,26588)  4.34652623E-03                    1_GWF-(1,10966)
        106          3          6      0.11874555                    1_GWF-(1,26194)  3.35714774E-03                    1_GWF-(1,14801)
        107          3          7     -0.12437830                    1_GWF-(1,26543)  3.72901596E-03                    1_GWF-(1,10966)
        108          3          8     -0.11022928                    1_GWF-(1,26421)  2.01354810E-03                    1_GWF-(1,11936)
        109          3          9      0.11268006                    1_GWF-(1,26588)  2.28694372E-03                    1_GWF-(1,10966)
        110          3         10  9.30053583E-02                    1_GWF-(1,26420) -2.33198195E-03                    1_GWF-(1,14800)
        111          3         11      0.12756013                    1_GWF-(1,26486) -2.03067305E-03                    1_GWF-(1,14801)
        112          3         12      0.10674050                    1_GWF-(1,26648) -1.67418381E-03                    1_GWF-(1,14800)
        113          3         13     -0.10271745                    1_GWF-(1,26672) -1.37801673E-03                    1_GWF-(1,14801)
        114          3         14 -9.71098712E-02                    1_GWF-(1,26622)  1.16013172E-03                    1_GWF-(1,11936)
        115          3         15     -0.11509643                    1_GWF-(1,26350)  1.10835350E-03                    1_GWF-(1,15940)
        116          3         16     -0.13118627                    1_GWF-(1,26422) -9.83600889E-04                    1_GWF-(1,15940)
        117          3         17      0.10195259                    1_GWF-(1,26422) -1.10764781E-03                    1_GWF-(1,10966)
        118          3         18      0.12319234                    1_GWF-(1,26350)  8.73124892E-04                    1_GWF-(1,10966)
        119          3         19      0.11533161                    1_GWF-(1,26422)  9.52829966E-04                    1_GWF-(1,14801)
        120          3         20     -0.10997534                    1_GWF-(1,26422)  9.06410668E-04                    1_GWF-(1,14800)
        121          3         21 -8.44212478E-02                    1_GWF-(1,26420)  8.82326668E-04                    1_GWF-(1,14801)
        122          3         22     -0.10311439                    1_GWF-(1,26672)  6.35591296E-04                    1_GWF-(1,14800)
        123          3         23  7.97881653E-02                    1_GWF-(1,26648) -6.22952051E-04                    1_GWF-(1,10961)
        124          3         24      0.12195091                    1_GWF-(1,26588) -8.40661343E-04                    1_GWF-(1,10966)
        125          3         25      0.14107829                    1_GWF-(1,26543) -7.58693914E-04                    1_GWF-(1,14801)
        126          3         26      0.13450417                    1_GWF-(1,26588) -5.56580497E-04                    1_GWF-(1,10965)
        127          3         27      0.12066678                    1_GWF-(1,26420) -1.13335519E-03                    1_GWF-(1,10966)
        128          3         28 -7.40224385E-02                    1_GWF-(1,26586)  8.98496225E-04                    1_GWF-(1,14800)
        129          3         29 -9.50249236E-02                    1_GWF-(1,26543) -1.30354283E-03                    1_GWF-(1,10966)
        130          3         30 -9.35766901E-02                    1_GWF-(1,26420) -1.01718819E-03                    1_GWF-(1,14801)
        131          3         31     -0.11124234                    1_GWF-(1,26487)  7.33248875E-04                    1_GWF-(1,14801)
        132          3         32 -8.91374182E-02                    1_GWF-(1,26420) -3.32880762E-04                    1_GWF-(1,10966)
        133          3         33 -7.28380010E-02                    1_GWF-(1,26422)  9.08407036E-04                    1_GWF-(1,14800)
        134          3         34 -5.42526211E-02                    1_GWF-(1,26350)  1.27363325E-03                    1_GWF-(1,14801)
        135          3         35  4.84933943E-02                    1_GWF-(1,26623)  1.21358291E-03                    1_GWF-(1,14800)
        136          3         36 -5.13510758E-02                    1_GWF-(1,26623)  9.56363654E-04                    1_GWF-(1,14801)
        137          3         37  5.70453680E-02                    1_GWF-(1,26623)  3.61680957E-04                    1_GWF-(1,14800)
        138          3         38  6.42656861E-02                    1_GWF-(1,26622)  7.27655936E-04                    1_GWF-(1,14800)
        139          3         39  5.24949830E-02                    1_GWF-(1,22786)  1.31826538E-03                    1_GWF-(1,14801)
        140          3         40 -4.67295868E-02                    1_GWF-(1,26665) -1.51516417E-03                    1_GWF-(1,14801)
        141          3         41  7.36324151E-02                    1_GWF-(1,26665)  1.03727474E-03                    1_GWF-(1,14801)
        142          3         42 -9.28636482E-02                    1_GWF-(1,26665)  2.71883101E-04                    1_GWF-(1,10961)
        143          3         43 -9.18927924E-02                    1_GWF-(1,26666)  1.44112007E-03                    1_GWF-(1,14800)
        144          3         44  5.58511010E-02                    1_GWF-(1,26588)  2.08207748E-03                    1_GWF-(1,14801)
        145          3         45  8.27892552E-02                    1_GWF-(1,26665) -2.80089944E-03                    1_GWF-(1,14801)
        146          3         46  6.60630698E-02                    1_GWF-(1,26666) -3.03931738E-03                    1_GWF-(1,14800)
        147          3         47 -4.56309689E-02                    1_GWF-(1,26482) -2.99401017E-03                    1_GWF-(1,14801)
        148          3         48 -4.08220040E-02                    1_GWF-(1,26648)  2.16082296E-03                    1_GWF-(1,14801)
        149          3         49 -5.10756899E-02                    1_GWF-(1,26649) -1.88000400E-03                    1_GWF-(1,14801)
        150          3         50 -4.83822380E-02                    1_GWF-(1,26466) -1.24822429E-03                    1_GWF-(1,14800)
        151          4          1 -2.61244331E-02                    1_GWF-(1,11439) -8.98343811E-04                    1_GWF-(1,14801)
        152          4          2 -2.43747104E-02                    1_GWF-(1,11436)  9.01202753E-04                    1_GWF-(1,14801)
        153          4          3 -2.04814897E-02                    1_GWF-(1,26217) -9.21434304E-04                    1_GWF-(1,14801)
        154          4          4 -2.01648375E-02                    1_GWF-(1,26218) -8.37334035E-04                    1_GWF-(1,14800)
        155          4          5  1.75116777E-02                    1_GWF-(1,26218) -6.55985271E-04                    1_GWF-(1,14801)
        156          4          6 -1.85216626E-02                    1_GWF-(1,26218) -4.20199155E-04                    1_GWF-(1,14800)
        157          4          7 -1.56724931E-02                    1_GWF-(1,26217)  1.70337482E-04                    1_GWF-(1,14800)
        158          4          8 -1.36170770E-02                    1_GWF-(1,26665)  9.50135819E-05                    1_GWF-(1,10966)
        159          4          9  1.69002048E-02                    1_GWF-(1,26665)  2.32668608E-04                    1_GWF-(1,14801)
        160          4         10 -1.59414948E-02                    1_GWF-(1,26665)  2.41215933E-04                    1_GWF-(1,14800)
        161          4         11  1.55290753E-02                    1_GWF-(1,26665)  1.41100624E-04                    1_GWF-(1,14801)
        162          4         12 -7.81858656E-03                    1_GWF-(1,26649)  1.04668678E-04                    1_GWF-(1,14801)
        163          4         13 -7.41152133E-03                    1_GWF-(1,26622)  1.96313988E-04                    1_GWF-(1,14800)
        164          4         14  9.07429603E-03                    1_GWF-(1,26622)  1.92994077E-04                    1_GWF-(1,14801)
        165          4         15  8.10983439E-03                    1_GWF-(1,26623)  1.12618218E-04                    1_GWF-(1,14800)
        166          4         16 -6.77992021E-03                    1_GWF-(1,26623)  6.35723676E-05                    1_GWF-(1,14800)
        167          4         17 -6.89203297E-03                    1_GWF-(1,26622)  1.75976031E-04                    1_GWF-(1,14801)
        168          4         18 -4.43921021E-03                    1_GWF-(1,26486)  2.37009257E-04                    1_GWF-(1,14800)
        169          4         19  6.22848673E-03                    1_GWF-(1,26588)  2.33647278E-04                    1_GWF-(1,14801)
        170          4         20 -7.64451441E-03                    1_GWF-(1,26588)  1.14476741E-04                    1_GWF-(1,14800)
        171          4         21  7.15604145E-03                    1_GWF-(1,26420)  8.33488944E-05                    1_GWF-(1,14800)
        172          4         22  5.03023886E-03                    1_GWF-(1,26487)  2.12367025E-04                    1_GWF-(1,14801)
        173          4         23 -4.07172640E-03                    1_GWF-(1,26649) -3.12356547E-04                    1_GWF-(1,14801)
        174          4         24 -4.51173285E-03                    1_GWF-(1,26420) -3.70708849E-04                    1_GWF-(1,14800)
        175          4         25 -6.72317206E-03                    1_GWF-(1,26623) -3.22916760E-04                    1_GWF-(1,14801)
        176          4         26 -6.60250478E-03                    1_GWF-(1,26589) -1.50489075E-04                    1_GWF-(1,14800)
        177          4         27 -6.82314832E-03                    1_GWF-(1,26588) -9.79816432E-05                    1_GWF-(1,14800)
        178          4         28  6.78244571E-03                    1_GWF-(1,26588) -2.48034415E-04                    1_GWF-(1,14801)
        179          4         29 -4.15956081E-03                    1_GWF-(1,26544) -2.48889668E-04                    1_GWF-(1,14800)
        180          4         30  2.72433654E-03                    1_GWF-(1,26544)  2.07293071E-04                    1_GWF-(1,14800)
        181          4         31  4.08221564E-03                    1_GWF-(1,26486)  1.44366056E-04                    1_GWF-(1,14801)
        182          4         32 -3.45226536E-03                    1_GWF-(1,26422)  7.26667508E-05                    1_GWF-(1,14800)
        183          4         33  4.46090202E-03                    1_GWF-(1,26422)  3.55784021E-05                    1_GWF-(1,10966)
        184          4         34 -4.31981434E-03                    1_GWF-(1,26422)  8.82075077E-05                    1_GWF-(1,14801)
        185          4         35 -4.65069102E-03                    1_GWF-(1,26350)  1.37591969E-04                    1_GWF-(1,14800)
        186          4         36 -4.67261287E-03                    1_GWF-(1,26422)  1.58755535E-04                    1_GWF-(1,14801)
        187          4         37 -3.21886409E-03                    1_GWF-(1,26350)  1.52064359E-04                    1_GWF-(1,14800)
        188          4         38 -2.09854365E-03                    1_GWF-(1,26422)  1.48891940E-04                    1_GWF-(1,14801)
        189          4         39 -1.88864337E-03                    1_GWF-(1,22908)  1.26838532E-04                    1_GWF-(1,14800)
        190          4         40 -1.60464539E-03                    1_GWF-(1,22911)  1.17371344E-04                    1_GWF-(1,14801)
        191          4         41  1.63545420E-03                    1_GWF-(1,26394)  9.86426141E-05                    1_GWF-(1,14800)
        192          4         42 -1.50411720E-03                    1_GWF-(1,26663)  8.52020567E-05                    1_GWF-(1,14801)
        193          4         43 -1.59927916E-03                    1_GWF-(1,26674)  7.65274064E-05                    1_GWF-(1,14800)
        194          4         44  2.00524216E-03                    1_GWF-(1,26350)  6.17903041E-05                    1_GWF-(1,14801)
        195          4         45  1.62677342E-03                    1_GWF-(1,26218)  4.70679905E-05                    1_GWF-(1,10965)
        196          4         46  1.57632729E-03                    1_GWF-(1,26487)  7.11408053E-05                    1_GWF-(1,10966)
        197          4         47  9.95695680E-04                    1_GWF-(1,26673) -5.31892046E-05                    1_GWF-(1,10966)
        198          4         48  1.31554520E-03                    1_GWF-(1,26672)  6.65289520E-05                    1_GWF-(1,10966)
        199          4         49 -1.32867748E-03                    1_GWF-(1,26672)  4.54376141E-05                    1_GWF-(1,10961)
        200          4         50 -1.28781286E-03                    1_GWF-(1,26663)  5.23115919E-05                    1_GWF-(1,10966)
        201          5          1 -8.75450660E-03                    1_GWF-(1,11936)  1.96998683E-05                    1_GWF-(1,10965)
        202          5          2 -2.86445828E-03                    1_GWF-(1,11935)  3.36214528E-05                    1_GWF-(1,10966)
        203          5          3 -1.51688074E-03                    1_GWF-(1,11925)  2.78867664E-05                    1_GWF-(1,10965)
        204          5          4 -1.17178607E-03                    1_GWF-(1,11927)  4.68642732E-05                    1_GWF-(1,10966)
        205          5          5  1.10269847E-03                    1_GWF-(1,12190)  3.60031679E-05                    1_GWF-(1,10965)
        206          5          6  1.06437122E-03                    1_GWF-(1,11958)  4.36442849E-05                    1_GWF-(1,10966)
        207          5          7 -1.21565533E-03                    1_GWF-(1,26672)  2.42822329E-05                    1_GWF-(1,10961)
        208          5          8  1.27251449E-03                    1_GWF-(1,11999)  2.42539939E-05                    1_GWF-(1,10966)
        209          5          9  1.25899649E-03                    1_GWF-(1,11981) -1.12445528E-05                    1_GWF-(1,11923)
        210          5         10  1.20670002E-03                    1_GWF-(1,11983)  9.56692512E-06                    1_GWF-(1,10961)
        211          5         11  1.62661867E-03                    1_GWF-(1,26649)  2.18533680E-05                    1_GWF-(1,10966)
        212          5         12  2.05327690E-03                    1_GWF-(1,26622)  1.25216570E-05                    1_GWF-(1,10965)
        213          5         13  1.68619120E-03                    1_GWF-(1,26623)  6.69360048E-06                    1_GWF-(1,11924)
        214          5         14  1.17804442E-03                    1_GWF-(1,26622)  1.18224294E-05                    1_GWF-(1,10966)
        215          5         15  8.54263539E-04                    1_GWF-(1,26623) -2.07882987E-05                    1_GWF-(1,10966)
        216          5         16 -8.57509369E-04                    1_GWF-(1,12088)  2.76978325E-05                    1_GWF-(1,10966)
        217          5         17 -8.25778344E-04                    1_GWF-(1,12079) -3.01704113E-05                    1_GWF-(1,10966)
        218          5         18  1.33432542E-03                    1_GWF-(1,26486)  1.88624761E-05                    1_GWF-(1,10966)
        219          5         19 -1.30888299E-03                    1_GWF-(1,26486) -4.75607990E-06                    1_GWF-(1,11920)
        220          5         20 -1.18612345E-03                    1_GWF-(1,26487) -2.19899935E-05                    1_GWF-(1,10966)
        221          5         21 -8.39812916E-04                    1_GWF-(1,26486)  2.87531123E-05                    1_GWF-(1,10966)
        222          5         22 -7.01095334E-04                    1_GWF-(1,26422) -3.89770168E-05                    1_GWF-(1,10966)
        223          5         23 -9.10415878E-04                    1_GWF-(1,26350)  3.10417080E-05                    1_GWF-(1,10966)
        224          5         24 -1.03655730E-03                    1_GWF-(1,26422) -3.47729529E-05                    1_GWF-(1,10966)
        225          5         25  9.53843867E-04                    1_GWF-(1,26422)  1.87406781E-05                    1_GWF-(1,10966)
        226          5         26  1.15172185E-03                    1_GWF-(1,26350) -1.11441429E-05                    1_GWF-(1,10966)
        227          5         27  1.14533754E-03                    1_GWF-(1,26422) -1.34717825E-05                    1_GWF-(1,10966)
        228          5         28  8.14934293E-04                    1_GWF-(1,26350)  2.20802150E-05                    1_GWF-(1,10966)
        229          5         29  6.07749370E-04                    1_GWF-(1,26588) -2.66495024E-05                    1_GWF-(1,10966)
        230          5         30 -7.14484490E-04                    1_GWF-(1,26588)  1.90719936E-05                    1_GWF-(1,10966)
        231          5         31  7.28754538E-04                    1_GWF-(1,26588) -9.41573323E-06                    1_GWF-(1,10966)
        232          5         32 -6.47039566E-04                    1_GWF-(1,26588) -8.75813509E-06                    1_GWF-(1,10966)
        233          5         33 -5.78685609E-04                    1_GWF-(1,26422)  1.55339222E-05                    1_GWF-(1,10966)
        234          5         34 -4.51721082E-04                    1_GWF-(1,26350) -2.09936362E-05                    1_GWF-(1,10966)
        235          5         35 -3.03246304E-04                    1_GWF-(1,26421)  2.14226116E-05                    1_GWF-(1,10966)
        236          5         36 -2.19433887E-04                    1_GWF-(1,23992) -1.89435029E-05                    1_GWF-(1,10966)
        237          5         37 -2.11371485E-04                     1_GWF-(1,2333)  1.69727268E-05                    1_GWF-(1,10966)
        238          5         38 -2.10014368E-04                      1_GWF-(1,519) -1.65843481E-05                    1_GWF-(1,10966)
        239          5         39  2.10213613E-04                    1_GWF-(1,26217)  1.48842386E-05                    1_GWF-(1,10966)
        240          5         40  2.58862151E-04                    1_GWF-(1,26218) -1.36982111E-05                    1_GWF-(1,10966)
        241          5         41 -2.90551150E-04                    1_GWF-(1,26218)  1.29306109E-05                    1_GWF-(1,10966)
        242          5         42 -4.24816351E-04                    1_GWF-(1,26217) -8.84244441E-06                    1_GWF-(1,10966)
        243          5         43 -5.04156275E-04                    1_GWF-(1,26665)  6.34657674E-06                    1_GWF-(1,10966)
        244          5         44 -4.76509143E-04                    1_GWF-(1,26666)  2.84862351E-06                    1_GWF-(1,10966)
        245          5         45  5.34159720E-04                    1_GWF-(1,26666)  5.38592306E-06                    1_GWF-(1,10965)
        246          5         46  6.39613134E-04                    1_GWF-(1,26665)  9.22636747E-06                    1_GWF-(1,10966)
        247          5         47  4.54671157E-04                    1_GWF-(1,26666) -5.30068847E-06                    1_GWF-(1,10966)
        248          5         48  3.52529456E-04                    1_GWF-(1,26217)  4.26676356E-06                    1_GWF-(1,10966)
        249          5         49  3.44833233E-04                    1_GWF-(1,26218)  1.85601711E-06                    1_GWF-(1,10961)
        250          5         50  2.93580361E-04                    1_GWF-(1,26217)  2.36533419E-06                    1_GWF-(1,10961)
        251          6          1 -2.94316412E-04                    1_GWF-(1,26217)  2.87747998E-06                    1_GWF-(1,10966)
        252          6          2 -3.23244272E-04                    1_GWF-(1,26218) -1.47135490E-06                    1_GWF-(1,15940)
        253          6          3 -2.81536845E-04                    1_GWF-(1,26217)  1.20927816E-06                    1_GWF-(1,10966)
        254          6          4 -1.97623279E-04                    1_GWF-(1,26543)  9.46943582E-07                    1_GWF-(1,10966)
        255          6          5 -2.76095446E-04                    1_GWF-(1,26588)  1.02075403E-06                    1_GWF-(1,10965)
        256          6          6 -2.77567860E-04                    1_GWF-(1,26543)  1.07245527E-06                    1_GWF-(1,10966)
        257          6          7 -2.12738012E-04                    1_GWF-(1,26487)  7.40387136E-07                    1_GWF-(1,11039)
        258          6          8 -1.38176493E-04                    1_GWF-(1,26420)  4.18051247E-07                    1_GWF-(1,10967)
        259          6          9  1.44295025E-04                    1_GWF-(1,26622)  4.76667513E-07                    1_GWF-(1,11068)
        260          6         10  1.52927663E-04                    1_GWF-(1,26487) -5.68510761E-07                    1_GWF-(1,10966)
        261          6         11  1.30564347E-04                    1_GWF-(1,26622)  6.38180309E-07                    1_GWF-(1,14801)
        262          6         12  9.36048348E-05                    1_GWF-(1,26217)  7.03941291E-07                    1_GWF-(1,14800)
        263          6         13  1.04958218E-04                    1_GWF-(1,26218)  7.20260022E-07                    1_GWF-(1,14799)
        264          6         14  7.17841840E-05                    1_GWF-(1,26217)  5.91922938E-07                    1_GWF-(1,14801)
        265          6         15  8.88125125E-05                    1_GWF-(1,26622) -5.67560899E-07                    1_GWF-(1,15940)
        266          6         16  1.03213315E-04                    1_GWF-(1,26649)  4.42204962E-07                    1_GWF-(1,14801)
        267          6         17 -1.03207866E-04                    1_GWF-(1,26649)  4.61637707E-07                    1_GWF-(1,14800)
        268          6         18 -7.80494925E-05                    1_GWF-(1,26622)  6.71292673E-07                    1_GWF-(1,14799)
        269          6         19  4.77431176E-05                    1_GWF-(1,26487)  7.61615612E-07                    1_GWF-(1,15940)
        270          6         20  5.48733170E-05                    1_GWF-(1,25766) -1.33492640E-06                    1_GWF-(1,10966)
        271          6         21  5.54761026E-05                    1_GWF-(1,22704)  1.14816752E-06                    1_GWF-(1,15940)
        272          6         22  4.56872803E-05                    1_GWF-(1,25716) -1.38532284E-06                    1_GWF-(1,10966)
        273          6         23 -6.02687037E-05                    1_GWF-(1,26486)  1.27681838E-06                    1_GWF-(1,10966)
        274          6         24 -5.84469936E-05                    1_GWF-(1,26544) -1.15321622E-06                    1_GWF-(1,10966)
        275          6         25 -7.06706981E-05                    1_GWF-(1,26422) -8.57454352E-07                    1_GWF-(1,10961)
        276          6         26 -8.53102153E-05                    1_GWF-(1,26350) -7.12263216E-07                    1_GWF-(1,10966)
        277          6         27 -8.36972148E-05                    1_GWF-(1,26422) -3.23233490E-07                    1_GWF-(1,11200)
        278          6         28  8.61830583E-05                    1_GWF-(1,26422) -4.12076109E-07                    1_GWF-(1,10961)
        279          6         29  6.24811065E-05                    1_GWF-(1,26350) -5.95058812E-07                    1_GWF-(1,10966)
        280          6         30  5.30699155E-05                    1_GWF-(1,26665)  5.07232482E-07                    1_GWF-(1,10966)
        281          6         31  5.87141184E-05                    1_GWF-(1,26588)  3.02589929E-07                    1_GWF-(1,10959)
        282          6         32 -5.98692913E-05                    1_GWF-(1,26588) -2.17700506E-07                    1_GWF-(1,10966)
        283          6         33 -4.38167971E-05                    1_GWF-(1,26589)  4.29030824E-07                    1_GWF-(1,15940)
        284          6         34 -4.66637487E-05                    1_GWF-(1,26588) -5.24313667E-07                    1_GWF-(1,15940)
        285          6         35 -3.46098503E-05                    1_GWF-(1,26350)  6.88421478E-07                    1_GWF-(1,10966)
        286          6         36 -3.52059940E-05                    1_GWF-(1,26422) -6.56303348E-07                    1_GWF-(1,10966)
        287          6         37 -2.90449963E-05                    1_GWF-(1,26350)  5.54494799E-07                    1_GWF-(1,10966)
        288          6         38 -2.41189030E-05                    1_GWF-(1,26422)  4.86844488E-07                    1_GWF-(1,10965)
        289          6         39  2.12131834E-05                    1_GWF-(1,26649)  5.31323280E-07                    1_GWF-(1,10966)
        290          6         40  2.58327797E-05                    1_GWF-(1,26648)  3.48937310E-07                    1_GWF-(1,14800)
        291          6         41  3.35343751E-05                    1_GWF-(1,26649)  2.81444509E-07                    1_GWF-(1,10966)
        292          6         42  3.65686505E-05                    1_GWF-(1,26486)  2.63572089E-07                    1_GWF-(1,10966)
        293          6         43  3.34530102E-05                    1_GWF-(1,26487)  2.84132618E-07                    1_GWF-(1,14800)
        294          6         44  2.74359824E-05                    1_GWF-(1,26486)  3.65221171E-07                    1_GWF-(1,10966)
        295          6         45  2.08592316E-05                    1_GWF-(1,26544)  2.96375958E-07                    1_GWF-(1,10965)
        296          6         46  2.16799565E-05                    1_GWF-(1,26486)  2.61928574E-07                    1_GWF-(1,14801)
        297          6         47  1.79179547E-05                    1_GWF-(1,26648) -2.16929545E-07                    1_GWF-(1,14801)
        298          6         48  1.46667235E-05                    1_GWF-(1,26663)  2.09747150E-07                    1_GWF-(1,10966)
        299          6         49  1.76425147E-05                    1_GWF-(1,11943)  1.62735817E-07                    1_GWF-(1,10963)
        300          6         50  2.30623918E-05                    1_GWF-(1,11935)  2.80266517E-07                    1_GWF-(1,11935)
        301          7          1 -2.59120187E-05                    1_GWF-(1,11935)  1.70468054E-07                    1_GWF-(1,10966)
        302          7          2  1.76265654E-05                    1_GWF-(1,26649)  1.31401435E-07                    1_GWF-(1,10965)
        303          7          3 -2.08664808E-05                    1_GWF-(1,26486)  1.29061799E-07                    1_GWF-(1,11935)
        304          7          4 -2.39443237E-05                    1_GWF-(1,26487)  1.28825931E-07                    1_GWF-(1,10967)
        305          7          5 -2.14993555E-05                    1_GWF-(1,26486)  1.68431939E-07                    1_GWF-(1,10965)
        306          7          6 -1.79446814E-05                    1_GWF-(1,26487)  1.64674842E-07                    1_GWF-(1,10966)
        307          7          7 -1.96120572E-05                    1_GWF-(1,26674)  1.03484443E-07                    1_GWF-(1,11924)
        308          7          8  1.93042014E-05                    1_GWF-(1,26674) -1.27132218E-07                    1_GWF-(1,11936)
        309          7          9  2.11146659E-05                    1_GWF-(1,26663)  1.05225253E-07                    1_GWF-(1,10966)
        310          7         10  2.04344767E-05                    1_GWF-(1,26665)  9.84474862E-08                    1_GWF-(1,10955)
        311          7         11 -2.17956432E-05                    1_GWF-(1,26665)  1.21925201E-07                    1_GWF-(1,10966)
        312          7         12  1.70768481E-05                    1_GWF-(1,26622)  1.07744530E-07                    1_GWF-(1,10965)
        313          7         13  1.87412189E-05                    1_GWF-(1,26623) -8.29330656E-08                    1_GWF-(1,11922)
        314          7         14  1.55052233E-05                    1_GWF-(1,26622) -7.10403587E-08                    1_GWF-(1,10965)
        315          7         15  1.55313658E-05                    1_GWF-(1,26623)  6.58990859E-08                    1_GWF-(1,11932)
        316          7         16  1.55683847E-05                    1_GWF-(1,26543)  6.07580379E-08                    1_GWF-(1,10966)
        317          7         17  1.56863044E-05                    1_GWF-(1,26665) -6.40105328E-08                    1_GWF-(1,11917)
        318          7         18  1.23839831E-05                    1_GWF-(1,26543)  7.89213421E-08                    1_GWF-(1,11198)
        319          7         19  8.71919792E-06                    1_GWF-(1,25797)  9.40634250E-08                    1_GWF-(1,15940)
        320          7         20 -1.15894489E-05                    1_GWF-(1,26588) -1.10131468E-07                    1_GWF-(1,15940)
        321          7         21  1.23532931E-05                    1_GWF-(1,26588)  1.01819472E-07                    1_GWF-(1,15940)
        322          7         22 -1.61267693E-05                    1_GWF-(1,26588) -5.87126663E-08                    1_GWF-(1,11131)
        323          7         23 -1.47062470E-05                    1_GWF-(1,26589) -6.30949650E-08                    1_GWF-(1,11205)
        324          7         24 -1.73815577E-05                    1_GWF-(1,26588)  9.99445078E-08                    1_GWF-(1,15940)
        325          7         25 -9.19395058E-06                    1_GWF-(1,26543) -1.47958611E-07                    1_GWF-(1,15940)
        326          7         26  7.73678665E-06                    1_GWF-(1,26422)  1.73358572E-07                    1_GWF-(1,15940)
        327          7         27  8.36613198E-06                    1_GWF-(1,26350) -1.65643777E-07                    1_GWF-(1,15940)
        328          7         28  8.73216646E-06                    1_GWF-(1,26422)  1.43517619E-07                    1_GWF-(1,15940)
        329          7         29  8.90107282E-06                    1_GWF-(1,26350) -1.12944532E-07                    1_GWF-(1,15940)
        330          7         30  9.99653922E-06                    1_GWF-(1,26422)  6.78354090E-08                    1_GWF-(1,15940)
        331          7         31  9.84025598E-06                    1_GWF-(1,26350)  5.63915648E-08                    1_GWF-(1,14801)
        332          7         32  9.15659056E-06                    1_GWF-(1,26422)  5.04758730E-08                    1_GWF-(1,14800)
        333          7         33 -7.56229519E-06                    1_GWF-(1,26422)  5.21550123E-08                    1_GWF-(1,14800)
        334          7         34  7.26805015E-06                    1_GWF-(1,26486) -6.01102155E-08                    1_GWF-(1,15940)
        335          7         35  6.07208394E-06                    1_GWF-(1,26622)  5.80700543E-08                    1_GWF-(1,15940)
        336          7         36 -7.81619152E-06                    1_GWF-(1,26622)  3.91806074E-08                    1_GWF-(1,14801)
        337          7         37 -7.75742329E-06                    1_GWF-(1,26649)  3.51230070E-08                    1_GWF-(1,14801)
        338          7         38  5.97961882E-06                    1_GWF-(1,26649)  5.69968526E-08                    1_GWF-(1,15940)
        339          7         39 -3.94311556E-06                    1_GWF-(1,26350) -6.35140280E-08                    1_GWF-(1,15940)
        340          7         40 -3.77760049E-06                    1_GWF-(1,26421)  5.70476773E-08                    1_GWF-(1,15940)
        341          7         41 -4.44047031E-06                    1_GWF-(1,26544)  5.74107392E-08                    1_GWF-(1,14801)
        342          7         42 -7.18288364E-06                    1_GWF-(1,26486)  4.81917143E-08                    1_GWF-(1,14800)
        343          7         43 -6.00529085E-06                    1_GWF-(1,26487)  2.31859839E-08                    1_GWF-(1,14801)
        344          7         44  7.48218140E-06                    1_GWF-(1,26487)  2.93576703E-08                    1_GWF-(1,10961)
        345          7         45  7.17971272E-06                    1_GWF-(1,26486)  4.75615867E-08                    1_GWF-(1,10966)
        346          7         46  4.92398524E-06                    1_GWF-(1,26588) -4.83016741E-08                    1_GWF-(1,14800)
        347          7         47  3.79001736E-06                    1_GWF-(1,26420) -5.24713284E-08                    1_GWF-(1,14801)
        348          7         48  4.75805273E-06                    1_GWF-(1,26218) -4.63004625E-08                    1_GWF-(1,14800)
        349          7         49  4.96902959E-06                    1_GWF-(1,26217)  4.34060296E-08                    1_GWF-(1,14800)
        350          7         50  3.79804638E-06                    1_GWF-(1,26218)  3.39600142E-08                    1_GWF-(1,14801)
        351          8          1 -4.34878528E-06                    1_GWF-(1,26218)  5.82121660E-08                    1_GWF-(1,14800)
        352          8          2 -5.43856709E-06                    1_GWF-(1,26217)  4.12526757E-08                    1_GWF-(1,14801)
        353          8          3 -4.21104864E-06                    1_GWF-(1,26218) -2.21027071E-08                    1_GWF-(1,14801)
        354          8          4 -2.84411899E-06                    1_GWF-(1,26622)  2.46266701E-08                    1_GWF-(1,10966)
        355          8          5 -3.26145942E-06                    1_GWF-(1,26543) -2.14740518E-08                    1_GWF-(1,14800)
        356          8          6 -2.67248036E-06                    1_GWF-(1,26622)  2.70961330E-08                    1_GWF-(1,14800)
        357          8          7  2.77301720E-06                    1_GWF-(1,26622)  2.21933822E-08                    1_GWF-(1,14801)
        358          8          8  2.17924933E-06                    1_GWF-(1,26649) -1.56821593E-08                    1_GWF-(1,11198)
        359          8          9  2.07824978E-06                    1_GWF-(1,26486)  1.15001202E-08                    1_GWF-(1,14800)
        360          8         10  2.12327506E-06                    1_GWF-(1,26665)  1.98546465E-08                    1_GWF-(1,14801)
        361          8         11 -2.40851324E-06                    1_GWF-(1,26665)  1.83904718E-08                    1_GWF-(1,14800)
        362          8         12  1.53081301E-06                    1_GWF-(1,26588)  1.24192349E-08                    1_GWF-(1,14801)
        363          8         13  1.26915493E-06                    1_GWF-(1,26217)  1.69485520E-08                    1_GWF-(1,14801)
        364          8         14  1.44021583E-06                    1_GWF-(1,26588)  2.18689673E-08                    1_GWF-(1,14800)
        365          8         15 -2.24547628E-06                    1_GWF-(1,26588)  2.01968944E-08                    1_GWF-(1,14801)
        366          8         16 -1.87877531E-06                    1_GWF-(1,26543)  1.31921356E-08                    1_GWF-(1,14800)
        367          8         17  1.61432236E-06                    1_GWF-(1,26543)  1.25965340E-08                    1_GWF-(1,14800)
        368          8         18  1.28222997E-06                    1_GWF-(1,26588)  2.31277511E-08                    1_GWF-(1,14801)
        369          8         19  9.63016745E-07                    1_GWF-(1,26486)  2.68234179E-08                    1_GWF-(1,14800)
        370          9          1 -9.57179146E-07                    1_GWF-(1,26486)  2.56199615E-08                    1_GWF-(1,14801)
 --------------------------------------------------------------------------------------------------------------------------------------



 MEMORY MANAGER TOTAL STORAGE BY DATA TYPE, IN MEGABYTES
 -------------------------------
                    ALLOCATED   
 DATA TYPE           MEMORY     
 -------------------------------
 Character        4.66090000E-02
 Logical          4.40000000E-05
 Integer          5.2037920     
 Real             11.901376     
 -------------------------------
 Total            17.151821     
 -------------------------------


 
 Run end date and time (yyyy/mm/dd hh:mm:ss): 2022/05/30 22:21:21
 Elapsed run time:  0.516 Seconds
 Normal termination of simulation.
