                                   MODFLOW 6
                U.S. GEOLOGICAL SURVEY MODULAR HYDROLOGIC MODEL
                            VERSION 6.2.2 07/30/2021

   MODFLOW 6 compiled Jul 31 2021 14:22:53 with IFORT compiler (ver. 19.10.3)

This software has been approved for release by the U.S. Geological 
Survey (USGS). Although the software has been subjected to rigorous 
review, the USGS reserves the right to update the software as needed 
pursuant to further analysis and review. No warranty, expressed or 
implied, is made by the USGS or the U.S. Government as to the 
functionality of the software and related material nor shall the 
fact of release constitute any such warranty. Furthermore, the 
software is released on condition that neither the USGS nor the U.S. 
Government shall be held liable for any damages resulting from its 
authorized or unauthorized use. Also refer to the USGS Water 
Resources Software User Rights Notice for complete use, copyright, 
and distribution information.


System command used to initiate simulation:
mf6

MODFLOW was compiled using uniform precision.

Real Variables
  KIND: 8
  TINY (smallest non-zero value):    2.225074-308
  HUGE (largest value):    1.797693+308
  PRECISION: 15
  BIT SIZE: 64

Integer Variables
  KIND: 4
  HUGE (largest value): 2147483647
  BIT SIZE: 32

Long Integer Variables
  KIND: 8
  HUGE (largest value): 9223372036854775807
  BIT SIZE: 64

Logical Variables
  KIND: 4
  BIT SIZE: 32
 

 OPENED mfsim.nam
 FILE TYPE:NAM   UNIT 1001   STATUS:OLD                 
 FORMAT:FORMATTED              ACCESS:SEQUENTIAL          
 ACTION:READ                

 # File generated by Flopy version 3.3.5 on 06/01/2022 at 18:12:02.

 READING SIMULATION OPTIONS
 END OF SIMULATION OPTIONS

 READING SIMULATION TIMING

 OPENED mfsim.tdis
 FILE TYPE:TDIS   UNIT 1002   STATUS:OLD                 
 FORMAT:FORMATTED              ACCESS:SEQUENTIAL          
 ACTION:READ                


 TDIS -- TEMPORAL DISCRETIZATION PACKAGE,
 VERSION 1 : 11/13/2014 - INPUT READ FROM UNIT 1002
 # File generated by Flopy version 3.3.5 on 06/01/2022 at 18:12:02.
 PROCESSING TDIS OPTIONS
    SIMULATION TIME UNIT IS SECONDS
 END OF TDIS OPTIONS
 PROCESSING TDIS DIMENSIONS
    1 STRESS PERIOD(S) IN SIMULATION
 END OF TDIS DIMENSIONS
 PROCESSING TDIS PERIODDATA


 STRESS PERIOD     LENGTH       TIME STEPS     MULTIPLIER FOR DELT
 ----------------------------------------------------------------------------
        1         6.000000          1                    1.000
 END OF TDIS PERIODDATA
 END OF SIMULATION TIMING

 READING SIMULATION MODELS
    GWF6 model ML will be created as model 1
 END OF SIMULATION MODELS

 READING SIMULATION EXCHANGES
 END OF SIMULATION EXCHANGES

 READING SOLUTIONGROUP

 Creating solution: SLN_1           

 OPENED mfsim.ims
 FILE TYPE:IMS   UNIT 1015   STATUS:OLD                 
 FORMAT:FORMATTED              ACCESS:SEQUENTIAL          
 ACTION:READ                

 END OF SIMULATION SOLUTIONGROUP

 IMS -- ITERATIVE MODEL SOLUTION PACKAGE, VERSION 6, 4/28/2017
         INPUT READ FROM UNIT 1015
 # File generated by Flopy version 3.3.5 on 06/01/2022 at 18:12:02.

 PROCESSING IMS OPTIONS
 END OF IMS OPTIONS

 PROCESSING IMS NONLINEAR
 END OF IMS NONLINEAR DATA
 ***UNDER-RELAXATION WILL NOT BE USED***
 
 ***IMS LINEAR SOLVER WILL BE USED***

 IMSLINEAR -- UNSTRUCTURED LINEAR SOLUTION PACKAGE, VERSION 8, 04/28/2017

 PROCESSING LINEAR DATA
 END OF LINEAR DATA
 
 OUTER ITERATION CONVERGENCE CRITERION    (DVCLOSE) =    0.100000E-04
 MAXIMUM NUMBER OF OUTER ITERATIONS        (MXITER) = 100
 SOLVER PRINTOUT INDEX                     (IPRIMS) = 2
 NONLINEAR ITERATION METHOD            (NONLINMETH) = 0
 LINEAR SOLUTION METHOD                   (LINMETH) = 1

       SOLUTION BY THE        CONJUGATE-GRADIENT       METHOD
 ------------------------------------------------------------------
 MAXIMUM OF 100 CALLS OF SOLUTION ROUTINE
 MAXIMUM OF 50 INTERNAL ITERATIONS PER CALL TO SOLUTION ROUTINE
 LINEAR ACCELERATION METHOD            = CG        
 MATRIX PRECONDITIONING TYPE           = INCOMPLETE LU       
 MATRIX SCALING APPROACH               = NO SCALING          
 MATRIX REORDERING APPROACH            = ORIGINAL ORDERING        
 NUMBER OF ORTHOGONALIZATIONS          = 0
 HEAD CHANGE CRITERION FOR CLOSURE     =    0.10000E-05
 RESIDUAL CHANGE CRITERION FOR CLOSURE =    0.10000E-04
 RESIDUAL CONVERGENCE OPTION           = 1
 RESIDUAL CONVERGENCE NORM             = INFINITY NORM S 
 RELAXATION FACTOR                     =    0.00000E+00



 
    Solving:  Stress period:     1    Time step:     1
 
1
                            STRESS PERIOD NO. 1, LENGTH =   6.000000    
                            -----------------------------------------------
                            NUMBER OF TIME STEPS = 1
                            MULTIPLIER FOR DELT =     1.000
                            INITIAL TIME STEP SIZE =   6.000000    

 SLN_1 OUTER ITERATION SUMMARY
 ----------------------------------------------------------------------------------------------------------
                                OUTER      INNER                    STEP   MAXIMUM CHANGE MODEL-(CELLID) OR
 OUTER ITERATION STEP       ITERATION  ITERATION  MAXIMUM CHANGE SUCCESS             MODEL-PACKAGE-(NUMBER)
 ----------------------------------------------------------------------------------------------------------
 Model                              1         50       168.34012                            1_GWF-(1,26519)
 Model                              2         50      -163.42286                            1_GWF-(1,26519)
 Model                              3         50       2.0944502                            1_GWF-(1,17428)
 Model                              4         50      -1.2651829                            1_GWF-(1,21766)
 Model                              5         50      0.28272027                            1_GWF-(1,17527)
 Model                              6         50     -0.16343586                            1_GWF-(1,21762)
 Model                              7         50  3.81599258E-02                            1_GWF-(1,17529)
 Model                              8         50 -2.55190270E-02                            1_GWF-(1,11455)
 Model                              9         50  5.03754231E-03                            1_GWF-(1,17490)
 Model                             10         50 -2.93088206E-03                            1_GWF-(1,24903)
 Model                             11         50 -7.43696661E-04                            1_GWF-(1,26589)
 Model                             12         50 -3.95503597E-04                            1_GWF-(1,24905)
 Model                             13         50 -1.12976763E-04                            1_GWF-(1,26587)
 Model                             14         50 -5.87666058E-05                             1_GWF-(1,2965)
 Model                             15         50 -1.79141064E-05                            1_GWF-(1,26587)
 Model                             16         50 -9.00385689E-06                              1_GWF-(1,896)
 Model                             17         11 -2.37629174E-06                            1_GWF-(1,26543)
 Model                             18          1  6.55334333E-07       *                    1_GWF-(1,26420)
 ----------------------------------------------------------------------------------------------------------


 18 CALLS TO NUMERICAL SOLUTION IN TIME STEP 1 STRESS PERIOD 1
 812 TOTAL ITERATIONS

 SLN_1 INNER ITERATION SUMMARY
 --------------------------------------------------------------------------------------------------------------------------------------
      TOTAL      OUTER      INNER                                                            MAXIMUM                                   
  ITERATION  ITERATION  ITERATION  MAXIMUM CHANGE      MAXIMUM CHANGE MODEL-(CELLID)        RESIDUAL    MAXIMUM RESIDUAL MODEL-(CELLID)
 --------------------------------------------------------------------------------------------------------------------------------------
          1          1          1       22.593613                    1_GWF-(1,26517)      0.19326709                    1_GWF-(1,11179)
          2          1          2       37.280028                    1_GWF-(1,26516)     -0.27921915                    1_GWF-(1,11179)
          3          1          3       48.303086                    1_GWF-(1,26515)     -0.25134407                    1_GWF-(1,15975)
          4          1          4       30.987940                    1_GWF-(1,26513)      0.19065393                    1_GWF-(1,15975)
          5          1          5       24.288700                    1_GWF-(1,26647)      0.15178808                    1_GWF-(1,11202)
          6          1          6       28.423235                    1_GWF-(1,26649)     -0.16575007                    1_GWF-(1,11207)
          7          1          7       22.872898                    1_GWF-(1,26622)      0.16744338                    1_GWF-(1,10966)
          8          1          8       17.874672                    1_GWF-(1,26623)      0.14484006                    1_GWF-(1,10960)
          9          1          9       13.946727                    1_GWF-(1,26543)  7.64229099E-02                    1_GWF-(1,10960)
         10          1         10       13.569259                    1_GWF-(1,26486)  8.08298248E-02                    1_GWF-(1,10967)
         11          1         11       10.296383                    1_GWF-(1,26487)      0.11045173                    1_GWF-(1,10966)
         12          1         12       6.9418547                    1_GWF-(1,26420)  9.04812299E-02                    1_GWF-(1,10960)
         13          1         13       5.8952014                    1_GWF-(1,26422)  6.16941825E-02                    1_GWF-(1,10960)
         14          1         14       4.0693081                    1_GWF-(1,26350)  6.22307371E-02                    1_GWF-(1,10966)
         15          1         15      -2.7660707                    1_GWF-(1,26623)  8.19788124E-02                    1_GWF-(1,10966)
         16          1         16      -2.6843473                    1_GWF-(1,26622)  6.67753415E-02                    1_GWF-(1,10960)
         17          1         17      -3.2813644                    1_GWF-(1,26623)  4.22666893E-02                    1_GWF-(1,11206)
         18          1         18      -3.9077680                    1_GWF-(1,26543)  5.38725942E-02                    1_GWF-(1,10967)
         19          1         19      -5.3782315                    1_GWF-(1,26588)  6.28981178E-02                    1_GWF-(1,10966)
         20          1         20      -4.3071978                    1_GWF-(1,26543)  4.49333060E-02                    1_GWF-(1,10960)
         21          1         21      -3.8362914                    1_GWF-(1,26487)  3.53742967E-02                    1_GWF-(1,14799)
         22          1         22      -4.1604408                    1_GWF-(1,26486)  4.18546523E-02                    1_GWF-(1,10966)
         23          1         23      -3.8239694                    1_GWF-(1,26487)  3.55907199E-02                    1_GWF-(1,14799)
         24          1         24       3.9122744                    1_GWF-(1,11575)  3.48107407E-02                    1_GWF-(1,14799)
         25          1         25       3.0975992                    1_GWF-(1,11707)  3.51069847E-02                    1_GWF-(1,14799)
         26          1         26       3.4750429                    1_GWF-(1,26487) -3.23112027E-02                    1_GWF-(1,11206)
         27          1         27       3.4642175                    1_GWF-(1,26420)  3.71249770E-02                    1_GWF-(1,11206)
         28          1         28       2.5659865                    1_GWF-(1,11618)  4.37923343E-02                    1_GWF-(1,14799)
         29          1         29       2.3191269                    1_GWF-(1,11706)  3.79294724E-02                    1_GWF-(1,14798)
         30          1         30      -2.2194162                    1_GWF-(1,11618)  3.43701135E-02                    1_GWF-(1,14799)
         31          1         31      -2.5485620                    1_GWF-(1,11707) -3.30795069E-02                    1_GWF-(1,11206)
         32          1         32       2.7268974                    1_GWF-(1,26422)  4.47779965E-02                    1_GWF-(1,14799)
         33          1         33      -2.6197457                    1_GWF-(1,26422)  3.85328198E-02                    1_GWF-(1,14798)
         34          1         34      -2.6648019                    1_GWF-(1,26350)  3.84241166E-02                    1_GWF-(1,14799)
         35          1         35      -2.5553656                    1_GWF-(1,26422)  3.26400416E-02                    1_GWF-(1,14799)
         36          1         36      -1.9317672                    1_GWF-(1,26544)  3.61061646E-02                    1_GWF-(1,14799)
         37          1         37      -1.5264158                    1_GWF-(1,26486)  3.66262616E-02                    1_GWF-(1,14799)
         38          1         38      -1.7643280                    1_GWF-(1,11621)  2.67388899E-02                    1_GWF-(1,14801)
         39          1         39      -1.2804786                    1_GWF-(1,26649)  3.69570324E-02                    1_GWF-(1,14799)
         40          1         40       1.8974074                    1_GWF-(1,11621) -3.24677644E-02                    1_GWF-(1,11206)
         41          1         41       1.1206083                    1_GWF-(1,11569)  3.51006164E-02                    1_GWF-(1,14799)
         42          1         42      -1.6978834                    1_GWF-(1,11622) -3.87018084E-02                    1_GWF-(1,11206)
         43          1         43       1.2984111                    1_GWF-(1,26350)  4.62134085E-02                    1_GWF-(1,14799)
         44          1         44       1.2746619                    1_GWF-(1,26217) -4.08652389E-02                    1_GWF-(1,11206)
         45          1         45      -1.6724606                    1_GWF-(1,11622)  4.34997061E-02                    1_GWF-(1,14799)
         46          1         46     -0.83422645                    1_GWF-(1,16081)  5.25745010E-02                    1_GWF-(1,14801)
         47          1         47      -1.1689445                    1_GWF-(1,26217)  8.17754584E-02                    1_GWF-(1,14799)
         48          1         48      -1.3437427                    1_GWF-(1,26218) -6.88694704E-02                    1_GWF-(1,14799)
         49          1         49      -1.5572564                    1_GWF-(1,26217)      0.11175937                    1_GWF-(1,14799)
         50          1         50      -1.6768766                    1_GWF-(1,26218)      0.13191395                    1_GWF-(1,14801)
         51          2          1      -166.87287                    1_GWF-(1,26519)     -0.24086141                    1_GWF-(1,26458)
         52          2          2      -63.483285                    1_GWF-(1,26513)  5.80501860E-02                    1_GWF-(1,26458)
         53          2          3      -38.505413                    1_GWF-(1,26637)  7.85989040E-02                    1_GWF-(1,14799)
         54          2          4      -35.297991                    1_GWF-(1,26665)  6.34176273E-02                    1_GWF-(1,14801)
         55          2          5      -23.330656                    1_GWF-(1,26622)  9.70297647E-02                    1_GWF-(1,14799)
         56          2          6      -19.421950                    1_GWF-(1,26588)  8.73470136E-02                    1_GWF-(1,14801)
         57          2          7      -18.574645                    1_GWF-(1,26543)      0.14219053                    1_GWF-(1,14799)
         58          2          8      -13.372620                    1_GWF-(1,26486)     -0.13965383                    1_GWF-(1,14799)
         59          2          9      -9.8198194                    1_GWF-(1,26487)      0.13888448                    1_GWF-(1,14799)
         60          2         10      -7.3048495                    1_GWF-(1,26421)  5.90585008E-02                    1_GWF-(1,14801)
         61          2         11      -7.2112649                    1_GWF-(1,26350)  2.74953952E-02                    1_GWF-(1,14801)
         62          2         12      -4.3471633                    1_GWF-(1,26217)  6.10710321E-02                    1_GWF-(1,14799)
         63          2         13      -2.5239979                    1_GWF-(1,26622)  6.52080513E-02                    1_GWF-(1,14801)
         64          2         14      -1.8162723                    1_GWF-(1,26623)  5.47120203E-02                    1_GWF-(1,14799)
         65          2         15      -1.7414926                    1_GWF-(1,26622)  2.19769974E-02                    1_GWF-(1,14801)
         66          2         16      -1.6179826                    1_GWF-(1,25728)  5.58748746E-02                    1_GWF-(1,14801)
         67          2         17       2.1196018                    1_GWF-(1,26350)      0.11440578                    1_GWF-(1,14799)
         68          2         18       1.9137242                    1_GWF-(1,26422)  9.58298587E-02                    1_GWF-(1,14801)
         69          2         19       2.0212177                    1_GWF-(1,26588)  8.84317013E-02                    1_GWF-(1,14799)
         70          2         20       1.8555818                    1_GWF-(1,26543)  1.55663636E-02                    1_GWF-(1,14801)
         71          2         21       2.0039058                    1_GWF-(1,26588)  8.60489950E-02                    1_GWF-(1,14801)
         72          2         22       2.3495863                    1_GWF-(1,26543)      0.15523919                    1_GWF-(1,14799)
         73          2         23       1.8245771                    1_GWF-(1,26544)      0.16645438                    1_GWF-(1,14801)
         74          2         24      -2.7554996                    1_GWF-(1,26487)      0.13342163                    1_GWF-(1,14799)
         75          2         25      -3.3336445                    1_GWF-(1,26486)  2.34201167E-02                    1_GWF-(1,14799)
         76          2         26      -3.5688538                    1_GWF-(1,26487)      0.15057145                    1_GWF-(1,14801)
         77          2         27      -2.4943052                    1_GWF-(1,26420)      0.27731228                    1_GWF-(1,14799)
         78          2         28       1.7125174                    1_GWF-(1,26217)      0.22696329                    1_GWF-(1,14801)
         79          2         29      -1.5347921                    1_GWF-(1,26327)      0.24179590                    1_GWF-(1,14799)
         80          2         30       1.5128952                    1_GWF-(1,26420)      0.19313746                    1_GWF-(1,14801)
         81          2         31      -1.1667124                    1_GWF-(1,26674)      0.18326806                    1_GWF-(1,14799)
         82          2         32      -1.0832477                    1_GWF-(1,26422)      0.14871060                    1_GWF-(1,14801)
         83          2         33      -1.1151624                    1_GWF-(1,26350)      0.11948640                    1_GWF-(1,14800)
         84          2         34      0.92729534                    1_GWF-(1,26350)      0.10582399                    1_GWF-(1,14801)
         85          2         35       1.3224350                    1_GWF-(1,26422)  7.52611726E-02                    1_GWF-(1,14800)
         86          2         36      0.90061605                    1_GWF-(1,26218)  5.37093103E-02                    1_GWF-(1,14801)
         87          2         37     -0.71707619                    1_GWF-(1,26350)  3.15941413E-02                    1_GWF-(1,14800)
         88          2         38      0.71672972                    1_GWF-(1,26350)  5.45649935E-02                    1_GWF-(1,14799)
         89          2         39      0.89535088                    1_GWF-(1,26422)  6.53714042E-02                    1_GWF-(1,14798)
         90          2         40     -0.93080496                    1_GWF-(1,26486)      0.13160346                    1_GWF-(1,14799)
         91          2         41     -0.99163245                    1_GWF-(1,26420)     -0.13459641                    1_GWF-(1,14799)
         92          2         42     -0.88079203                    1_GWF-(1,26421)      0.18088956                    1_GWF-(1,14799)
         93          2         43      0.96912733                    1_GWF-(1,26421)      0.14660344                    1_GWF-(1,14801)
         94          2         44     -0.74729805                    1_GWF-(1,26218)      0.15253924                    1_GWF-(1,14799)
         95          2         45      -1.0353909                    1_GWF-(1,26420)      0.11968576                    1_GWF-(1,14801)
         96          2         46      0.70665127                    1_GWF-(1,26217)  8.91439256E-02                    1_GWF-(1,14800)
         97          2         47     -0.70892248                    1_GWF-(1,26663)  8.86664082E-02                    1_GWF-(1,14801)
         98          2         48     -0.59568014                    1_GWF-(1,26218)  6.87068780E-02                    1_GWF-(1,14800)
         99          2         49     -0.65078534                    1_GWF-(1,22783)  7.75719025E-02                    1_GWF-(1,14801)
        100          2         50     -0.52541750                    1_GWF-(1,26604)  7.22825390E-02                    1_GWF-(1,14800)
        101          3          1     -0.33211794                    1_GWF-(1,22768)  5.17694053E-02                    1_GWF-(1,14801)
        102          3          2      0.50532583                    1_GWF-(1,22783)  8.74856487E-02                    1_GWF-(1,14800)
        103          3          3      0.51735849                    1_GWF-(1,26623)      0.11429126                    1_GWF-(1,14801)
        104          3          4      0.49395231                    1_GWF-(1,26649)  7.98515638E-02                    1_GWF-(1,14800)
        105          3          5      0.48538260                    1_GWF-(1,26421)      0.12057963                    1_GWF-(1,14801)
        106          3          6      0.40691098                    1_GWF-(1,26194)     -0.13614279                    1_GWF-(1,14801)
        107          3          7     -0.50131741                    1_GWF-(1,26350)      0.12929660                    1_GWF-(1,14801)
        108          3          8     -0.62474144                    1_GWF-(1,26421)      0.10807027                    1_GWF-(1,14800)
        109          3          9      0.58804594                    1_GWF-(1,26422)      0.12931277                    1_GWF-(1,14801)
        110          3         10      0.61852989                    1_GWF-(1,26350)  8.49666313E-02                    1_GWF-(1,14800)
        111          3         11      0.47675148                    1_GWF-(1,26486)  6.06221225E-02                    1_GWF-(1,14801)
        112          3         12     -0.60923459                    1_GWF-(1,26422)  3.42015399E-02                    1_GWF-(1,14800)
        113          3         13      0.40922350                    1_GWF-(1,26422)  3.10811325E-02                    1_GWF-(1,10966)
        114          3         14      0.42114490                    1_GWF-(1,26350)  4.26025020E-02                    1_GWF-(1,14799)
        115          3         15     -0.52462897                    1_GWF-(1,26350)  3.75057748E-02                    1_GWF-(1,14798)
        116          3         16     -0.54336825                    1_GWF-(1,26422)  6.91008292E-02                    1_GWF-(1,14799)
        117          3         17      0.44485714                    1_GWF-(1,26422)  4.93706653E-02                    1_GWF-(1,14800)
        118          3         18      0.46485940                    1_GWF-(1,26350)  6.72087299E-02                    1_GWF-(1,14801)
        119          3         19      0.43101166                    1_GWF-(1,26421)  7.54426995E-02                    1_GWF-(1,14800)
        120          3         20      0.45125347                    1_GWF-(1,26659)  8.25130518E-02                    1_GWF-(1,14801)
        121          3         21     -0.48232298                    1_GWF-(1,26420)  7.45332130E-02                    1_GWF-(1,14800)
        122          3         22     -0.48205132                    1_GWF-(1,11442)  9.23455810E-02                    1_GWF-(1,14801)
        123          3         23     -0.52466347                    1_GWF-(1,26217)  8.08787235E-02                    1_GWF-(1,14800)
        124          3         24     -0.43788814                    1_GWF-(1,26421)  6.68981920E-02                    1_GWF-(1,14801)
        125          3         25      0.72154792                    1_GWF-(1,26487) -4.20788811E-02                    1_GWF-(1,10966)
        126          3         26      0.88055338                    1_GWF-(1,26420)  2.19037860E-02                    1_GWF-(1,14798)
        127          3         27      0.78634062                    1_GWF-(1,26487)  3.32849090E-02                    1_GWF-(1,14801)
        128          3         28     -0.55392230                    1_GWF-(1,26487)  4.38062301E-02                    1_GWF-(1,14800)
        129          3         29     -0.62696646                    1_GWF-(1,26486)  4.92204752E-02                    1_GWF-(1,14801)
        130          3         30     -0.59167802                    1_GWF-(1,26544)  3.69367283E-02                    1_GWF-(1,14799)
        131          3         31      0.53643373                    1_GWF-(1,26588) -2.73102026E-02                    1_GWF-(1,14799)
        132          3         32      0.63111664                    1_GWF-(1,26543)  2.14866609E-02                    1_GWF-(1,14801)
        133          3         33     -0.60047520                    1_GWF-(1,26543)  3.75642171E-02                    1_GWF-(1,14800)
        134          3         34     -0.58043707                    1_GWF-(1,26588)  4.37703130E-02                    1_GWF-(1,14801)
        135          3         35      0.53584031                    1_GWF-(1,26588)  4.96381857E-02                    1_GWF-(1,14799)
        136          3         36      0.43542424                    1_GWF-(1,26665) -3.63956632E-02                    1_GWF-(1,14799)
        137          3         37      0.47285831                    1_GWF-(1,26623)  2.46613177E-02                    1_GWF-(1,14799)
        138          3         38      0.62657817                    1_GWF-(1,26622) -1.93943592E-02                    1_GWF-(1,10966)
        139          3         39      0.48540102                    1_GWF-(1,26649) -3.51887103E-02                    1_GWF-(1,14799)
        140          3         40     -0.46276579                    1_GWF-(1,26649)  4.90720790E-02                    1_GWF-(1,14799)
        141          3         41     -0.44418708                    1_GWF-(1,26648) -3.53791028E-02                    1_GWF-(1,14799)
        142          3         42     -0.59785128                    1_GWF-(1,26665)  1.29213147E-02                    1_GWF-(1,10966)
        143          3         43     -0.56629504                    1_GWF-(1,26666) -2.79588172E-02                    1_GWF-(1,10966)
        144          3         44     -0.44028515                    1_GWF-(1,26665) -4.07749203E-02                    1_GWF-(1,14799)
        145          3         45      0.57232162                    1_GWF-(1,26665)  6.30567772E-02                    1_GWF-(1,14799)
        146          3         46      0.48751909                    1_GWF-(1,26666) -6.15699564E-02                    1_GWF-(1,14799)
        147          3         47     -0.32519967                    1_GWF-(1,25816)  7.76410018E-02                    1_GWF-(1,14799)
        148          3         48      0.49808899                    1_GWF-(1,11442) -6.35397161E-02                    1_GWF-(1,14799)
        149          3         49     -0.41383187                    1_GWF-(1,11442)  9.07263560E-02                    1_GWF-(1,14799)
        150          3         50     -0.38890075                    1_GWF-(1,26637) -7.04161216E-02                    1_GWF-(1,14799)
        151          4          1     -0.64791939                    1_GWF-(1,16215)  2.36253297E-02                    1_GWF-(1,14799)
        152          4          2     -0.51847628                    1_GWF-(1,16130) -9.69815329E-02                    1_GWF-(1,14799)
        153          4          3      0.27593370                    1_GWF-(1,16130)      0.10101247                    1_GWF-(1,14799)
        154          4          4      0.31810691                    1_GWF-(1,16130) -5.64444948E-02                    1_GWF-(1,14799)
        155          4          5     -0.59030315                    1_GWF-(1,16130)  6.36677618E-02                    1_GWF-(1,14799)
        156          4          6      0.50139039                    1_GWF-(1,16130) -5.32350339E-02                    1_GWF-(1,14799)
        157          4          7     -0.24797757                    1_GWF-(1,26666)  3.82197865E-02                    1_GWF-(1,14799)
        158          4          8     -0.36632935                    1_GWF-(1,16130)  1.29464276E-02                    1_GWF-(1,14801)
        159          4          9      0.36958042                    1_GWF-(1,16130) -8.93089748E-03                    1_GWF-(1,14799)
        160          4         10      0.33207422                    1_GWF-(1,26666)  3.07631761E-02                    1_GWF-(1,14799)
        161          4         11     -0.30994777                    1_GWF-(1,16130) -3.28890122E-02                    1_GWF-(1,14799)
        162          4         12     -0.26730304                    1_GWF-(1,26649)  2.62728570E-02                    1_GWF-(1,14799)
        163          4         13      0.27092666                    1_GWF-(1,26649)  9.72983839E-03                    1_GWF-(1,14801)
        164          4         14      0.31435438                    1_GWF-(1,26622) -1.53161996E-02                    1_GWF-(1,14799)
        165          4         15      0.25949309                    1_GWF-(1,26623)  3.12769984E-02                    1_GWF-(1,14799)
        166          4         16     -0.27055122                    1_GWF-(1,26623) -2.70680883E-02                    1_GWF-(1,14799)
        167          4         17     -0.21980574                    1_GWF-(1,26622)  2.18827625E-02                    1_GWF-(1,14799)
        168          4         18     -0.23928217                    1_GWF-(1,26588)  1.47233709E-02                    1_GWF-(1,14801)
        169          4         19     -0.36115998                    1_GWF-(1,26543)  6.98829392E-03                    1_GWF-(1,14800)
        170          4         20     -0.38268949                    1_GWF-(1,26588)  1.82259189E-02                    1_GWF-(1,14799)
        171          4         21     -0.27848776                    1_GWF-(1,26543) -1.63958772E-02                    1_GWF-(1,14799)
        172          4         22      0.19563983                    1_GWF-(1,26486)  1.53842208E-02                    1_GWF-(1,14800)
        173          4         23      0.19837089                    1_GWF-(1,26487)  1.61786239E-02                    1_GWF-(1,14801)
        174          4         24      0.25556134                    1_GWF-(1,26486)  9.51408237E-03                    1_GWF-(1,14800)
        175          4         25      0.28745191                    1_GWF-(1,26487)  1.38810318E-02                    1_GWF-(1,14799)
        176          4         26      0.25744479                    1_GWF-(1,26420)  1.45935829E-02                    1_GWF-(1,14801)
        177          4         27      0.21316852                    1_GWF-(1,26487)  1.93956809E-02                    1_GWF-(1,14800)
        178          4         28      0.17657364                    1_GWF-(1,26217)  2.43370258E-02                    1_GWF-(1,14801)
        179          4         29      0.19784456                    1_GWF-(1,26218)  2.16186233E-02                    1_GWF-(1,14800)
        180          4         30      0.12915940                    1_GWF-(1,26420)  2.37438034E-02                    1_GWF-(1,14801)
        181          4         31      0.15559930                    1_GWF-(1,26486)  1.97542371E-02                    1_GWF-(1,14800)
        182          4         32 -9.89708775E-02                    1_GWF-(1,26604)  2.24534634E-02                    1_GWF-(1,14801)
        183          4         33     -0.14873443                    1_GWF-(1,26544)  1.76186244E-02                    1_GWF-(1,14800)
        184          4         34     -0.16996267                    1_GWF-(1,26486)  1.78133613E-02                    1_GWF-(1,14799)
        185          4         35     -0.17135226                    1_GWF-(1,26350)  1.06734292E-02                    1_GWF-(1,14800)
        186          4         36     -0.19681945                    1_GWF-(1,26422)  1.31676648E-02                    1_GWF-(1,14799)
        187          4         37     -0.15395824                    1_GWF-(1,26350)  7.37060063E-03                    1_GWF-(1,14798)
        188          4         38     -0.13155763                    1_GWF-(1,26422)  9.45123215E-03                    1_GWF-(1,14799)
        189          4         39     -0.11668809                    1_GWF-(1,26350)  6.40678599E-03                    1_GWF-(1,14801)
        190          4         40     -0.10865747                    1_GWF-(1,26422)  9.66711196E-03                    1_GWF-(1,14800)
        191          4         41 -9.50881912E-02                    1_GWF-(1,26350)  1.49211811E-02                    1_GWF-(1,14801)
        192          4         42  8.55795871E-02                    1_GWF-(1,26350)  1.58571846E-02                    1_GWF-(1,14800)
        193          4         43      0.12481937                    1_GWF-(1,26422)  1.89477770E-02                    1_GWF-(1,14801)
        194          4         44      0.14191439                    1_GWF-(1,26350)  1.83266719E-02                    1_GWF-(1,14800)
        195          4         45      0.11689537                    1_GWF-(1,26218)  2.13954372E-02                    1_GWF-(1,14801)
        196          4         46  9.48775174E-02                    1_GWF-(1,26420)  1.86573293E-02                    1_GWF-(1,14800)
        197          4         47  7.87313591E-02                    1_GWF-(1,26486)  1.94520817E-02                    1_GWF-(1,14801)
        198          4         48  6.91400678E-02                    1_GWF-(1,26589)  1.42531594E-02                    1_GWF-(1,14800)
        199          4         49 -7.31925272E-02                    1_GWF-(1,26420)  1.52344171E-02                    1_GWF-(1,14801)
        200          4         50 -8.18372906E-02                    1_GWF-(1,26218)  1.19132589E-02                    1_GWF-(1,14800)
        201          5          1 -8.37756264E-02                    1_GWF-(1,11427)  5.53355714E-03                    1_GWF-(1,14801)
        202          5          2     -0.11924638                    1_GWF-(1,11424)  1.59373896E-02                    1_GWF-(1,14800)
        203          5          3  5.51114277E-02                    1_GWF-(1,26218)  1.91349078E-02                    1_GWF-(1,14801)
        204          5          4 -8.56079121E-02                    1_GWF-(1,26486)  1.12907929E-02                    1_GWF-(1,14800)
        205          5          5 -9.60676827E-02                    1_GWF-(1,11369)  1.64971924E-02                    1_GWF-(1,14801)
        206          5          6      0.10635901                    1_GWF-(1,11369) -1.84715220E-02                    1_GWF-(1,14801)
        207          5          7     -0.11339802                    1_GWF-(1,26350)  1.48126942E-02                    1_GWF-(1,14801)
        208          5          8 -9.52968657E-02                    1_GWF-(1,26422)  1.21816395E-02                    1_GWF-(1,14800)
        209          5          9      0.14102204                    1_GWF-(1,11369)  1.44888215E-02                    1_GWF-(1,14801)
        210          5         10  7.70013910E-02                    1_GWF-(1,26350)  9.15063826E-03                    1_GWF-(1,14800)
        211          5         11  8.15919730E-02                    1_GWF-(1,26422)  6.02404980E-03                    1_GWF-(1,14801)
        212          5         12      0.13579029                    1_GWF-(1,11369)  6.06077090E-03                    1_GWF-(1,14799)
        213          5         13      0.11775382                    1_GWF-(1,26422)  5.95479926E-03                    1_GWF-(1,10966)
        214          5         14      0.11081363                    1_GWF-(1,26350)  7.57274288E-03                    1_GWF-(1,14799)
        215          5         15     -0.10563149                    1_GWF-(1,11453) -6.65669050E-03                    1_GWF-(1,14799)
        216          5         16      0.11121454                    1_GWF-(1,11453)  9.93935316E-03                    1_GWF-(1,14799)
        217          5         17  8.52990652E-02                    1_GWF-(1,26486)  7.44645892E-03                    1_GWF-(1,14800)
        218          5         18 -9.96129113E-02                    1_GWF-(1,11453)  9.68090001E-03                    1_GWF-(1,14801)
        219          5         19      0.15579903                    1_GWF-(1,11453)  9.71593662E-03                    1_GWF-(1,14800)
        220          5         20     -0.10443444                    1_GWF-(1,26486)  1.08420559E-02                    1_GWF-(1,14801)
        221          5         21     -0.10671578                    1_GWF-(1,11458)  9.14366599E-03                    1_GWF-(1,14800)
        222          5         22      0.14489265                    1_GWF-(1,11453)  9.25169574E-03                    1_GWF-(1,14801)
        223          5         23     -0.13584656                    1_GWF-(1,26588)  4.56198566E-03                    1_GWF-(1,14799)
        224          5         24     -0.11698521                    1_GWF-(1,26543)  4.58164582E-03                    1_GWF-(1,14800)
        225          5         25      0.12590218                    1_GWF-(1,11453)  9.47746039E-03                    1_GWF-(1,14801)
        226          5         26  8.61369821E-02                    1_GWF-(1,11458) -8.20295138E-03                    1_GWF-(1,14801)
        227          5         27 -9.05564387E-02                    1_GWF-(1,11453)  8.62932420E-03                    1_GWF-(1,14801)
        228          5         28     -0.11821966                    1_GWF-(1,11417) -6.44452573E-03                    1_GWF-(1,10966)
        229          5         29 -9.17883112E-02                    1_GWF-(1,11438) -4.74623619E-03                    1_GWF-(1,14799)
        230          5         30  7.36310066E-02                    1_GWF-(1,26543)  4.66695320E-03                    1_GWF-(1,14799)
        231          5         31      0.10912649                    1_GWF-(1,26588)  3.04649902E-03                    1_GWF-(1,14800)
        232          5         32  8.41123664E-02                    1_GWF-(1,26543)  5.21252529E-03                    1_GWF-(1,14801)
        233          5         33 -7.70904446E-02                    1_GWF-(1,11453)  5.49245913E-03                    1_GWF-(1,14799)
        234          5         34 -9.40432997E-02                    1_GWF-(1,11417) -6.29498511E-03                    1_GWF-(1,14799)
        235          5         35 -7.78674885E-02                    1_GWF-(1,11438)  7.95064056E-03                    1_GWF-(1,14799)
        236          5         36  7.55934047E-02                    1_GWF-(1,26665) -5.50542781E-03                    1_GWF-(1,14799)
        237          5         37  8.05764128E-02                    1_GWF-(1,26666)  3.65972472E-03                    1_GWF-(1,14799)
        238          5         38  7.64134964E-02                    1_GWF-(1,26674) -3.43551747E-03                    1_GWF-(1,10966)
        239          5         39 -6.44170909E-02                    1_GWF-(1,11453)  4.46932523E-03                    1_GWF-(1,14801)
        240          5         40 -5.83704964E-02                    1_GWF-(1,11417)  8.05288428E-03                    1_GWF-(1,14799)
        241          5         41 -5.63540114E-02                    1_GWF-(1,26487) -7.36623594E-03                    1_GWF-(1,14799)
        242          5         42 -5.55290864E-02                    1_GWF-(1,11453)  7.73734906E-03                    1_GWF-(1,14799)
        243          5         43 -4.66609375E-02                    1_GWF-(1,11417)  2.56769351E-03                    1_GWF-(1,14798)
        244          5         44  4.78759855E-02                    1_GWF-(1,26487)  2.40516592E-03                    1_GWF-(1,14798)
        245          5         45  6.64382949E-02                    1_GWF-(1,26665)  7.34485872E-03                    1_GWF-(1,14799)
        246          5         46  5.61191404E-02                    1_GWF-(1,16130) -8.08629261E-03                    1_GWF-(1,14799)
        247          5         47 -5.54474193E-02                    1_GWF-(1,11438)  1.15579372E-02                    1_GWF-(1,14799)
        248          5         48 -5.19043121E-02                    1_GWF-(1,11437) -1.13109616E-02                    1_GWF-(1,14799)
        249          5         49  5.91182696E-02                    1_GWF-(1,16130)  9.46075982E-03                    1_GWF-(1,14799)
        250          5         50  6.31429404E-02                    1_GWF-(1,11458) -1.08086406E-02                    1_GWF-(1,14799)
        251          6          1 -6.49716469E-02                    1_GWF-(1,11458)  9.69046880E-03                    1_GWF-(1,14799)
        252          6          2 -3.47609594E-02                    1_GWF-(1,16130) -1.10540441E-02                    1_GWF-(1,14799)
        253          6          3 -3.53522256E-02                    1_GWF-(1,11438)  1.09561782E-02                    1_GWF-(1,14799)
        254          6          4  4.72099936E-02                    1_GWF-(1,11438) -7.81248241E-03                    1_GWF-(1,14799)
        255          6          5  3.14702745E-02                    1_GWF-(1,25815)  7.38272921E-03                    1_GWF-(1,14799)
        256          6          6 -4.51665722E-02                    1_GWF-(1,26665) -3.08780958E-03                    1_GWF-(1,14799)
        257          6          7 -4.13200324E-02                    1_GWF-(1,26647)  1.26024197E-03                    1_GWF-(1,14798)
        258          6          8 -4.10343137E-02                    1_GWF-(1,26649)  5.75595282E-03                    1_GWF-(1,14799)
        259          6          9  4.75287023E-02                    1_GWF-(1,26486) -6.25920926E-03                    1_GWF-(1,14799)
        260          6         10  4.78643504E-02                    1_GWF-(1,26487)  6.66502704E-03                    1_GWF-(1,14799)
        261          6         11  3.32129765E-02                    1_GWF-(1,26420) -4.29858650E-03                    1_GWF-(1,14799)
        262          6         12  3.34951573E-02                    1_GWF-(1,26622)  2.11201210E-03                    1_GWF-(1,14799)
        263          6         13 -4.15392984E-02                    1_GWF-(1,26674)  1.69012670E-03                    1_GWF-(1,14799)
        264          6         14 -4.21143577E-02                    1_GWF-(1,26666) -3.26221184E-03                    1_GWF-(1,14799)
        265          6         15 -4.38451611E-02                    1_GWF-(1,26665)  4.83721836E-03                    1_GWF-(1,14799)
        266          6         16 -3.44990690E-02                    1_GWF-(1,26350) -3.90188525E-03                    1_GWF-(1,14799)
        267          6         17 -2.50998850E-02                    1_GWF-(1,26487)  3.06934937E-03                    1_GWF-(1,14799)
        268          6         18  3.69407537E-02                    1_GWF-(1,11453)  2.36263608E-03                    1_GWF-(1,14801)
        269          6         19 -3.85701768E-02                    1_GWF-(1,26543)  1.56894273E-03                    1_GWF-(1,14800)
        270          6         20 -5.13181952E-02                    1_GWF-(1,26588)  1.94191114E-03                    1_GWF-(1,14799)
        271          6         21 -4.05080061E-02                    1_GWF-(1,26543) -2.22963730E-03                    1_GWF-(1,14799)
        272          6         22 -2.96300074E-02                    1_GWF-(1,26622)  2.52759513E-03                    1_GWF-(1,14799)
        273          6         23  2.93813539E-02                    1_GWF-(1,11417)  3.12189939E-03                    1_GWF-(1,14801)
        274          6         24 -3.23439909E-02                    1_GWF-(1,11417)  3.06094590E-03                    1_GWF-(1,14800)
        275          6         25 -2.75398567E-02                    1_GWF-(1,26218)  3.39324427E-03                    1_GWF-(1,14801)
        276          6         26  2.80816519E-02                    1_GWF-(1,26623)  1.86136696E-03                    1_GWF-(1,14800)
        277          6         27  3.78894367E-02                    1_GWF-(1,26622)  1.45247288E-03                    1_GWF-(1,14799)
        278          6         28  4.28204336E-02                    1_GWF-(1,26588)  2.45377075E-03                    1_GWF-(1,14801)
        279          6         29 -2.75814692E-02                    1_GWF-(1,11453) -2.54430696E-03                    1_GWF-(1,14801)
        280          6         30 -2.19471344E-02                    1_GWF-(1,11417)  3.13576606E-03                    1_GWF-(1,14801)
        281          6         31  3.34211325E-02                    1_GWF-(1,26486)  2.82851378E-03                    1_GWF-(1,14800)
        282          6         32 -2.73061241E-02                    1_GWF-(1,11453)  2.95787131E-03                    1_GWF-(1,14801)
        283          6         33  2.20156658E-02                    1_GWF-(1,11453)  2.18462322E-03                    1_GWF-(1,14800)
        284          6         34 -2.14160002E-02                    1_GWF-(1,26486)  2.44928400E-03                    1_GWF-(1,14799)
        285          6         35 -2.41554950E-02                    1_GWF-(1,26350)  1.52899000E-03                    1_GWF-(1,14800)
        286          6         36 -2.78977984E-02                    1_GWF-(1,26422)  1.93669729E-03                    1_GWF-(1,14799)
        287          6         37 -2.67934409E-02                    1_GWF-(1,26350)  1.19303603E-03                    1_GWF-(1,14798)
        288          6         38 -2.87977099E-02                    1_GWF-(1,26422)  1.41305524E-03                    1_GWF-(1,14799)
        289          6         39 -2.36831154E-02                    1_GWF-(1,26350)  1.11313774E-03                    1_GWF-(1,14801)
        290          6         40 -1.90112402E-02                    1_GWF-(1,11380)  1.64865978E-03                    1_GWF-(1,14800)
        291          6         41  2.26956108E-02                    1_GWF-(1,11380)  2.51429835E-03                    1_GWF-(1,14801)
        292          6         42 -1.45946547E-02                    1_GWF-(1,11369)  2.22036750E-03                    1_GWF-(1,14800)
        293          6         43  1.71634447E-02                    1_GWF-(1,26421)  2.58878942E-03                    1_GWF-(1,14801)
        294          6         44  2.54046077E-02                    1_GWF-(1,11380)  2.67805969E-03                    1_GWF-(1,14800)
        295          6         45  1.63925970E-02                    1_GWF-(1,26421)  2.81678410E-03                    1_GWF-(1,14801)
        296          6         46 -1.83260165E-02                    1_GWF-(1,11437)  2.10299619E-03                    1_GWF-(1,14800)
        297          6         47  3.00174719E-02                    1_GWF-(1,11380)  2.56741677E-03                    1_GWF-(1,14801)
        298          6         48 -2.21777261E-02                    1_GWF-(1,11380)  2.07473859E-03                    1_GWF-(1,14800)
        299          6         49  1.32788359E-02                    1_GWF-(1,11417)  2.09682756E-03                    1_GWF-(1,14801)
        300          6         50  3.10395047E-02                    1_GWF-(1,11380)  1.81394919E-03                    1_GWF-(1,14800)
        301          7          1 -3.01370939E-02                    1_GWF-(1,11380)  2.08791273E-03                    1_GWF-(1,14801)
        302          7          2 -1.32203249E-02                    1_GWF-(1,11424)  1.92550046E-03                    1_GWF-(1,14800)
        303          7          3  2.21436396E-02                    1_GWF-(1,11380)  2.31254319E-03                    1_GWF-(1,14801)
        304          7          4 -2.87808152E-02                    1_GWF-(1,11380)  1.93433660E-03                    1_GWF-(1,14800)
        305          7          5  1.31451610E-02                    1_GWF-(1,11380)  2.41035211E-03                    1_GWF-(1,14801)
        306          7          6 -1.32750506E-02                    1_GWF-(1,26421) -2.18856969E-03                    1_GWF-(1,14801)
        307          7          7 -2.42741605E-02                    1_GWF-(1,11380)  2.21118657E-03                    1_GWF-(1,14801)
        308          7          8  1.72607730E-02                    1_GWF-(1,11380)  1.80415569E-03                    1_GWF-(1,14800)
        309          7          9  1.44594584E-02                    1_GWF-(1,11369)  1.90411068E-03                    1_GWF-(1,14801)
        310          7         10 -1.98778920E-02                    1_GWF-(1,11380)  1.26235914E-03                    1_GWF-(1,14800)
        311          7         11  2.00235520E-02                    1_GWF-(1,11380)  9.10254156E-04                    1_GWF-(1,14801)
        312          7         12  1.81930820E-02                    1_GWF-(1,26350)  9.50975917E-04                    1_GWF-(1,14799)
        313          7         13  2.09274391E-02                    1_GWF-(1,26422)  1.05801777E-03                    1_GWF-(1,10966)
        314          7         14  1.84887499E-02                    1_GWF-(1,26350)  1.27444325E-03                    1_GWF-(1,14799)
        315          7         15  1.73734798E-02                    1_GWF-(1,26422) -1.01808656E-03                    1_GWF-(1,14799)
        316          7         16  1.29406984E-02                    1_GWF-(1,26350)  1.38011074E-03                    1_GWF-(1,14799)
        317          7         17  1.54030369E-02                    1_GWF-(1,11380)  1.09064622E-03                    1_GWF-(1,14800)
        318          7         18 -1.36868863E-02                    1_GWF-(1,11380)  1.38925999E-03                    1_GWF-(1,14801)
        319          7         19  1.42733898E-02                    1_GWF-(1,26623)  1.24568329E-03                    1_GWF-(1,14800)
        320          7         20  1.81991152E-02                    1_GWF-(1,26622)  1.02095104E-03                    1_GWF-(1,14801)
        321          7         21  1.61240488E-02                    1_GWF-(1,26649)  6.26584416E-04                    1_GWF-(1,14799)
        322          7         22 -1.68775670E-02                    1_GWF-(1,26623)  8.15049164E-04                    1_GWF-(1,14800)
        323          7         23 -1.91723580E-02                    1_GWF-(1,26622)  1.56853351E-03                    1_GWF-(1,14801)
        324          7         24 -1.44828969E-02                    1_GWF-(1,26649)  1.48055521E-03                    1_GWF-(1,14800)
        325          7         25 -1.08751261E-02                    1_GWF-(1,26486)  1.61536556E-03                    1_GWF-(1,14801)
        326          7         26  1.43879495E-02                    1_GWF-(1,11380)  1.28307828E-03                    1_GWF-(1,14800)
        327          7         27 -1.21357877E-02                    1_GWF-(1,11380)  1.05452513E-03                    1_GWF-(1,14801)
        328          7         28  1.18904713E-02                    1_GWF-(1,26486)  6.34667501E-04                    1_GWF-(1,14799)
        329          7         29  1.12398931E-02                    1_GWF-(1,11380)  5.50680693E-04                    1_GWF-(1,14800)
        330          7         30  1.04033675E-02                    1_GWF-(1,26543)  1.06668749E-03                    1_GWF-(1,14801)
        331          7         31  8.63792882E-03                    1_GWF-(1,26588) -1.07431731E-03                    1_GWF-(1,10966)
        332          7         32  1.29985071E-02                    1_GWF-(1,11380)  8.99979893E-04                    1_GWF-(1,14801)
        333          7         33  8.51775068E-03                    1_GWF-(1,26487)  1.00581445E-03                    1_GWF-(1,14799)
        334          7         34  9.30949631E-03                    1_GWF-(1,26420) -8.32136974E-04                    1_GWF-(1,14799)
        335          7         35  1.09787008E-02                    1_GWF-(1,11380)  7.32751802E-04                    1_GWF-(1,14799)
        336          7         36  1.07570775E-02                    1_GWF-(1,26218) -4.45650459E-04                    1_GWF-(1,10966)
        337          7         37 -9.72283387E-03                    1_GWF-(1,26588)  6.88468304E-04                    1_GWF-(1,14801)
        338          7         38  1.16336478E-02                    1_GWF-(1,11380)  1.00465502E-03                    1_GWF-(1,14799)
        339          7         39 -1.03552810E-02                    1_GWF-(1,26588) -1.09914074E-03                    1_GWF-(1,14799)
        340          7         40 -7.86636334E-03                    1_GWF-(1,26674)  1.17232511E-03                    1_GWF-(1,14799)
        341          7         41 -1.05361882E-02                    1_GWF-(1,26666)  5.17675065E-04                    1_GWF-(1,14798)
        342          7         42 -1.17567223E-02                    1_GWF-(1,26665)  3.61264231E-04                    1_GWF-(1,10966)
        343          7         43  7.91038184E-03                    1_GWF-(1,26665)  6.38105650E-04                    1_GWF-(1,14799)
        344          7         44  9.60152295E-03                    1_GWF-(1,11380) -8.51479922E-04                    1_GWF-(1,14799)
        345          7         45  8.50196564E-03                    1_GWF-(1,26665)  1.27115498E-03                    1_GWF-(1,14799)
        346          7         46 -5.76183759E-03                    1_GWF-(1,25815) -1.26988481E-03                    1_GWF-(1,14799)
        347          7         47  8.89565492E-03                    1_GWF-(1,11380)  1.59674673E-03                    1_GWF-(1,14799)
        348          7         48 -8.45767790E-03                    1_GWF-(1,11380) -1.53106821E-03                    1_GWF-(1,14799)
        349          7         49 -5.62692328E-03                    1_GWF-(1,26666)  1.57788586E-03                    1_GWF-(1,14799)
        350          7         50  9.62821678E-03                    1_GWF-(1,11380) -1.66277980E-03                    1_GWF-(1,14799)
        351          8          1 -2.94335531E-02                    1_GWF-(1,11455)  1.58515006E-03                    1_GWF-(1,14799)
        352          8          2 -1.80074667E-02                    1_GWF-(1,11456) -1.59937951E-03                    1_GWF-(1,14799)
        353          8          3  1.47575415E-02                    1_GWF-(1,11455)  1.59242415E-03                    1_GWF-(1,14799)
        354          8          4  1.40014444E-02                    1_GWF-(1,11456) -1.28347652E-03                    1_GWF-(1,14799)
        355          8          5  1.03071705E-02                    1_GWF-(1,11458)  1.28792190E-03                    1_GWF-(1,14799)
        356          8          6 -1.09134346E-02                    1_GWF-(1,11459) -8.72025446E-04                    1_GWF-(1,14799)
        357          8          7 -1.01587215E-02                    1_GWF-(1,11460)  6.63291824E-04                    1_GWF-(1,14799)
        358          8          8 -8.72641695E-03                    1_GWF-(1,11438)  2.37398854E-04                    1_GWF-(1,14801)
        359          8          9  8.52177883E-03                    1_GWF-(1,11380)  3.36444206E-04                    1_GWF-(1,14798)
        360          8         10  8.73605986E-03                    1_GWF-(1,11459)  8.79014102E-04                    1_GWF-(1,14799)
        361          8         11 -6.68598443E-03                    1_GWF-(1,11455) -8.72163175E-04                    1_GWF-(1,14799)
        362          8         12  6.57155346E-03                    1_GWF-(1,26588)  7.44395056E-04                    1_GWF-(1,14799)
        363          8         13  7.01491413E-03                    1_GWF-(1,11455)  3.72193619E-04                    1_GWF-(1,14801)
        364          8         14  7.70556289E-03                    1_GWF-(1,11453)  2.25605636E-04                    1_GWF-(1,14800)
        365          8         15 -6.34877450E-03                    1_GWF-(1,26218)  3.83327739E-04                    1_GWF-(1,14799)
        366          8         16 -8.33331442E-03                    1_GWF-(1,11458) -5.02390030E-04                    1_GWF-(1,14799)
        367          8         17 -4.88980711E-03                    1_GWF-(1,26420)  5.58619598E-04                    1_GWF-(1,14799)
        368          8         18  6.29120642E-03                    1_GWF-(1,11458) -3.74779941E-04                    1_GWF-(1,14799)
        369          8         19 -5.93859758E-03                    1_GWF-(1,11458)  4.10055110E-04                    1_GWF-(1,14800)
        370          8         20  4.65111164E-03                    1_GWF-(1,26217)  4.33608232E-04                    1_GWF-(1,14801)
        371          8         21 -4.55445611E-03                    1_GWF-(1,26543)  2.55745782E-04                    1_GWF-(1,14800)
        372          8         22  5.27591966E-03                    1_GWF-(1,11456)  2.59242600E-04                    1_GWF-(1,14799)
        373          8         23 -4.71814260E-03                    1_GWF-(1,26486)  3.46605849E-04                    1_GWF-(1,14801)
        374          8         24 -4.61707635E-03                    1_GWF-(1,11369)  4.46342748E-04                    1_GWF-(1,14800)
        375          8         25 -4.77235587E-03                    1_GWF-(1,26218)  5.75788644E-04                    1_GWF-(1,14801)
        376          8         26 -4.90540140E-03                    1_GWF-(1,11440) -5.07117344E-04                    1_GWF-(1,14801)
        377          8         27  6.91001519E-03                    1_GWF-(1,11453)  5.21249000E-04                    1_GWF-(1,14801)
        378          8         28  5.89881824E-03                    1_GWF-(1,26622)  3.05109746E-04                    1_GWF-(1,14800)
        379          8         29  5.01290359E-03                    1_GWF-(1,26649)  2.02594407E-04                    1_GWF-(1,14799)
        380          8         30 -4.65267249E-03                    1_GWF-(1,26649)  2.63801230E-04                    1_GWF-(1,14801)
        381          8         31 -5.17912203E-03                    1_GWF-(1,26622)  3.66391209E-04                    1_GWF-(1,14800)
        382          8         32 -3.83044978E-03                    1_GWF-(1,26623)  4.19943174E-04                    1_GWF-(1,14801)
        383          8         33  4.77336865E-03                    1_GWF-(1,11453)  3.16018380E-04                    1_GWF-(1,14800)
        384          8         34 -3.52197609E-03                    1_GWF-(1,11460)  3.52989631E-04                    1_GWF-(1,14799)
        385          8         35 -3.50125063E-03                    1_GWF-(1,26350) -2.36882260E-04                    1_GWF-(1,14799)
        386          8         36 -4.30103219E-03                    1_GWF-(1,26422)  2.98842053E-04                    1_GWF-(1,14799)
        387          8         37 -4.32212392E-03                    1_GWF-(1,26350)  1.84209348E-04                    1_GWF-(1,14798)
        388          8         38 -4.68786603E-03                    1_GWF-(1,26422)  2.16284179E-04                    1_GWF-(1,14799)
        389          8         39 -3.84810501E-03                    1_GWF-(1,26350)  1.82764871E-04                    1_GWF-(1,10966)
        390          8         40 -3.72821390E-03                    1_GWF-(1,11453)  2.68554519E-04                    1_GWF-(1,14800)
        391          8         41  3.36260221E-03                    1_GWF-(1,11438)  3.85363409E-04                    1_GWF-(1,14801)
        392          8         42  2.37906190E-03                    1_GWF-(1,11453)  3.33000833E-04                    1_GWF-(1,14800)
        393          8         43  2.58633252E-03                    1_GWF-(1,26421)  4.00974609E-04                    1_GWF-(1,14801)
        394          8         44  3.27566354E-03                    1_GWF-(1,11438)  3.94686404E-04                    1_GWF-(1,14800)
        395          8         45  2.51189895E-03                    1_GWF-(1,26421)  4.09838452E-04                    1_GWF-(1,14801)
        396          8         46 -2.83336341E-03                    1_GWF-(1,11460)  3.01950901E-04                    1_GWF-(1,14800)
        397          8         47 -3.38045019E-03                    1_GWF-(1,11458)  3.72614515E-04                    1_GWF-(1,14801)
        398          8         48  2.95578954E-03                    1_GWF-(1,11458)  3.02241111E-04                    1_GWF-(1,14800)
        399          8         49  2.17657799E-03                    1_GWF-(1,11443)  3.15967758E-04                    1_GWF-(1,14801)
        400          8         50 -3.33124372E-03                    1_GWF-(1,11458)  2.76389481E-04                    1_GWF-(1,14800)
        401          9          1 -3.00143044E-03                    1_GWF-(1,11437)  3.25750774E-04                    1_GWF-(1,14801)
        402          9          2 -1.68569204E-03                    1_GWF-(1,11424)  2.88190032E-04                    1_GWF-(1,14800)
        403          9          3 -2.42407208E-03                    1_GWF-(1,11458)  3.50434662E-04                    1_GWF-(1,14801)
        404          9          4  2.92866394E-03                    1_GWF-(1,11458)  2.95666099E-04                    1_GWF-(1,14800)
        405          9          5 -2.04559132E-03                    1_GWF-(1,26420)  3.63054420E-04                    1_GWF-(1,14801)
        406          9          6 -2.12492546E-03                    1_GWF-(1,26421) -3.32066608E-04                    1_GWF-(1,14801)
        407          9          7 -2.76876987E-03                    1_GWF-(1,26350)  3.41777817E-04                    1_GWF-(1,14801)
        408          9          8 -2.24021882E-03                    1_GWF-(1,26422)  2.70075073E-04                    1_GWF-(1,14800)
        409          9          9 -2.25683847E-03                    1_GWF-(1,11453)  2.83622513E-04                    1_GWF-(1,14801)
        410          9         10 -2.07649462E-03                    1_GWF-(1,11437)  1.93481533E-04                    1_GWF-(1,14800)
        411          9         11  2.52461438E-03                    1_GWF-(1,11453)  1.35726373E-04                    1_GWF-(1,14801)
        412          9         12  2.76659906E-03                    1_GWF-(1,26350)  1.50363900E-04                    1_GWF-(1,14799)
        413          9         13  3.03170081E-03                    1_GWF-(1,26422)  1.51923901E-04                    1_GWF-(1,10966)
        414          9         14  2.32764831E-03                    1_GWF-(1,26350)  1.46461019E-04                    1_GWF-(1,14799)
        415          9         15 -2.64474837E-03                    1_GWF-(1,26649)  1.01253812E-04                    1_GWF-(1,14800)
        416          9         16 -1.80682597E-03                    1_GWF-(1,26622)  9.16208248E-05                    1_GWF-(1,10966)
        417          9         17  1.93892918E-03                    1_GWF-(1,11453)  1.72633044E-04                    1_GWF-(1,14799)
        418          9         18 -2.00630224E-03                    1_GWF-(1,26350) -1.49975661E-04                    1_GWF-(1,14799)
        419          9         19 -2.09534314E-03                    1_GWF-(1,26422)  2.10638841E-04                    1_GWF-(1,14799)
        420          9         20  2.63161758E-03                    1_GWF-(1,11453)  1.66149151E-04                    1_GWF-(1,14800)
        421          9         21 -2.00472426E-03                    1_GWF-(1,11453)  2.09646634E-04                    1_GWF-(1,14801)
        422          9         22 -2.34402499E-03                    1_GWF-(1,26420)  1.75683360E-04                    1_GWF-(1,14800)
        423          9         23 -2.34977024E-03                    1_GWF-(1,26622)  1.32369654E-04                    1_GWF-(1,14801)
        424          9         24 -2.70538712E-03                    1_GWF-(1,26649)  1.21026930E-04                    1_GWF-(1,14799)
        425          9         25 -2.27687482E-03                    1_GWF-(1,26544)  1.26775168E-04                    1_GWF-(1,14800)
        426          9         26  2.53859672E-03                    1_GWF-(1,11453)  2.04035069E-04                    1_GWF-(1,14801)
        427          9         27 -1.52612867E-03                    1_GWF-(1,11440) -1.89776521E-04                    1_GWF-(1,14801)
        428          9         28 -1.61975187E-03                    1_GWF-(1,11458)  2.11968942E-04                    1_GWF-(1,14801)
        429          9         29 -1.52201991E-03                    1_GWF-(1,11369)  1.84012507E-04                    1_GWF-(1,14800)
        430          9         30  1.66437830E-03                    1_GWF-(1,26589)  1.63994414E-04                    1_GWF-(1,14801)
        431          9         31  2.12245043E-03                    1_GWF-(1,26588) -1.12520264E-04                    1_GWF-(1,10966)
        432          9         32  1.79185618E-03                    1_GWF-(1,26543)  5.36453429E-05                    1_GWF-(1,14798)
        433          9         33  1.57824763E-03                    1_GWF-(1,26588)  1.08546739E-04                    1_GWF-(1,14801)
        434          9         34 -1.48566588E-03                    1_GWF-(1,11458)  1.30321402E-04                    1_GWF-(1,14800)
        435          9         35  1.95088547E-03                    1_GWF-(1,11458)  1.57054598E-04                    1_GWF-(1,14801)
        436          9         36  1.67264026E-03                    1_GWF-(1,26218) -1.40608625E-04                    1_GWF-(1,10966)
        437          9         37 -1.91111598E-03                    1_GWF-(1,11458) -1.42315201E-04                    1_GWF-(1,14799)
        438          9         38  1.47980910E-03                    1_GWF-(1,11458)  2.02618743E-04                    1_GWF-(1,14799)
        439          9         39  1.29377226E-03                    1_GWF-(1,11369) -1.85988507E-04                    1_GWF-(1,14799)
        440          9         40 -1.41109124E-03                    1_GWF-(1,26674)  1.69863770E-04                    1_GWF-(1,14799)
        441          9         41 -1.71398436E-03                    1_GWF-(1,26666)  6.35340852E-05                    1_GWF-(1,14798)
        442          9         42 -1.63441638E-03                    1_GWF-(1,26665)  6.55365459E-05                    1_GWF-(1,10966)
        443          9         43  1.07576971E-03                    1_GWF-(1,11438)  1.03562864E-04                    1_GWF-(1,14799)
        444          9         44  1.37366278E-03                    1_GWF-(1,11482) -1.30789166E-04                    1_GWF-(1,14799)
        445          9         45  1.19102130E-03                    1_GWF-(1,26665)  1.95068574E-04                    1_GWF-(1,14799)
        446          9         46 -1.38087327E-03                    1_GWF-(1,11458) -1.96937897E-04                    1_GWF-(1,14799)
        447          9         47 -1.50845741E-03                    1_GWF-(1,11454)  2.38617657E-04                    1_GWF-(1,14799)
        448          9         48 -1.25896598E-03                    1_GWF-(1,11455) -2.28580201E-04                    1_GWF-(1,14799)
        449          9         49  1.41379993E-03                    1_GWF-(1,11456)  2.43969545E-04                    1_GWF-(1,14799)
        450          9         50  2.55511241E-03                    1_GWF-(1,11455) -2.56864788E-04                    1_GWF-(1,14799)
        451         10          1 -2.47152363E-03                    1_GWF-(1,11455)  2.49590909E-04                    1_GWF-(1,14799)
        452         10          2 -1.55885863E-03                    1_GWF-(1,11456) -2.38519511E-04                    1_GWF-(1,14799)
        453         10          3  1.34279815E-03                    1_GWF-(1,11455)  2.39399108E-04                    1_GWF-(1,14799)
        454         10          4  1.18128667E-03                    1_GWF-(1,11454) -1.98117101E-04                    1_GWF-(1,14799)
        455         10          5  9.94008732E-04                    1_GWF-(1,11458)  1.92329398E-04                    1_GWF-(1,14799)
        456         10          6 -9.53653365E-04                    1_GWF-(1,11459) -1.34916885E-04                    1_GWF-(1,14799)
        457         10          7 -1.06990415E-03                    1_GWF-(1,11458)  1.03856207E-04                    1_GWF-(1,14799)
        458         10          8 -8.30034911E-04                    1_GWF-(1,26665)  3.96802077E-05                    1_GWF-(1,14801)
        459         10          9  1.17245089E-03                    1_GWF-(1,26665)  4.28186539E-05                    1_GWF-(1,14798)
        460         10         10  1.20101030E-03                    1_GWF-(1,26666)  1.24872994E-04                    1_GWF-(1,14799)
        461         10         11  9.27801419E-04                    1_GWF-(1,26674) -1.37841465E-04                    1_GWF-(1,14799)
        462         10         12  7.88288752E-04                    1_GWF-(1,26543)  1.33345178E-04                    1_GWF-(1,14799)
        463         10         13  9.44689338E-04                    1_GWF-(1,26588) -7.03557306E-05                    1_GWF-(1,14799)
        464         10         14  6.92616471E-04                    1_GWF-(1,11458)  3.76640759E-05                    1_GWF-(1,14800)
        465         10         15 -8.57467915E-04                    1_GWF-(1,26218)  5.76603397E-05                    1_GWF-(1,14799)
        466         10         16 -9.35747290E-04                    1_GWF-(1,26623) -7.69222353E-05                    1_GWF-(1,14799)
        467         10         17 -8.50890747E-04                    1_GWF-(1,26622)  7.95703824E-05                    1_GWF-(1,14799)
        468         10         18  7.18325515E-04                    1_GWF-(1,11458)  6.70806445E-05                    1_GWF-(1,14801)
        469         10         19 -7.12353468E-04                    1_GWF-(1,11458) -7.01075160E-05                    1_GWF-(1,14801)
        470         10         20  7.58251220E-04                    1_GWF-(1,26217)  7.45314489E-05                    1_GWF-(1,14801)
        471         10         21 -8.54934855E-04                    1_GWF-(1,26588)  5.54288678E-05                    1_GWF-(1,14800)
        472         10         22 -6.51282588E-04                    1_GWF-(1,26649)  3.47005582E-05                    1_GWF-(1,14799)
        473         10         23 -6.54980864E-04                    1_GWF-(1,26648)  3.01744163E-05                    1_GWF-(1,14798)
        474         10         24  6.74146437E-04                    1_GWF-(1,26588)  5.52847458E-05                    1_GWF-(1,14800)
        475         10         25 -7.01908730E-04                    1_GWF-(1,26218)  8.12056344E-05                    1_GWF-(1,14801)
        476         10         26 -6.89457454E-04                    1_GWF-(1,11440) -7.61584550E-05                    1_GWF-(1,14801)
        477         10         27  9.07695944E-04                    1_GWF-(1,11453)  8.75696811E-05                    1_GWF-(1,14801)
        478         10         28  6.08067774E-04                    1_GWF-(1,26622)  6.76424013E-05                    1_GWF-(1,14800)
        479         10         29  7.14318489E-04                    1_GWF-(1,26350)  5.93094652E-05                    1_GWF-(1,14801)
        480         10         30  7.08936816E-04                    1_GWF-(1,26487)  2.73070389E-05                    1_GWF-(1,14800)
        481         10         31  8.36847596E-04                    1_GWF-(1,26486)  1.80392140E-05                    1_GWF-(1,14800)
        482         10         32  7.28699836E-04                    1_GWF-(1,26487)  4.46818844E-05                    1_GWF-(1,14801)
        483         10         33  5.26067224E-04                    1_GWF-(1,11453)  4.29844654E-05                    1_GWF-(1,14800)
        484         10         34 -6.21680943E-04                    1_GWF-(1,26486)  5.12018439E-05                    1_GWF-(1,14799)
        485         10         35 -4.95549647E-04                    1_GWF-(1,26350)  3.41252360E-05                    1_GWF-(1,14798)
        486         10         36 -6.33121843E-04                    1_GWF-(1,26422)  4.53371153E-05                    1_GWF-(1,14799)
        487         10         37 -6.65310400E-04                    1_GWF-(1,26350)  2.69264656E-05                    1_GWF-(1,14798)
        488         10         38 -7.21837406E-04                    1_GWF-(1,26422)  3.34363191E-05                    1_GWF-(1,14799)
        489         10         39 -5.86900589E-04                    1_GWF-(1,26350)  2.87573606E-05                    1_GWF-(1,10966)
        490         10         40 -4.39824088E-04                    1_GWF-(1,11453)  4.17367532E-05                    1_GWF-(1,14800)
        491         10         41  4.68302123E-04                    1_GWF-(1,11438)  5.85102161E-05                    1_GWF-(1,14801)
        492         10         42  3.13854910E-04                    1_GWF-(1,11453)  5.12775262E-05                    1_GWF-(1,14800)
        493         10         43  3.96097197E-04                    1_GWF-(1,26421)  6.32496929E-05                    1_GWF-(1,14801)
        494         10         44 -4.66839248E-04                    1_GWF-(1,11458)  5.97407435E-05                    1_GWF-(1,14800)
        495         10         45  3.93111357E-04                    1_GWF-(1,26421)  6.06816103E-05                    1_GWF-(1,14801)
        496         10         46  3.68295867E-04                    1_GWF-(1,26420)  4.78111365E-05                    1_GWF-(1,14800)
        497         10         47 -4.89247990E-04                    1_GWF-(1,11458)  5.66699653E-05                    1_GWF-(1,14801)
        498         10         48  4.19649423E-04                    1_GWF-(1,11458)  4.40752753E-05                    1_GWF-(1,14800)
        499         10         49  2.68264832E-04                    1_GWF-(1,26537)  4.96591626E-05                    1_GWF-(1,14801)
        500         10         50 -4.11645596E-04                    1_GWF-(1,11458)  4.27108601E-05                    1_GWF-(1,14800)
        501         11          1 -3.85605457E-04                    1_GWF-(1,11437)  4.99865043E-05                    1_GWF-(1,14801)
        502         11          2 -2.60979298E-04                    1_GWF-(1,26537)  4.29173188E-05                    1_GWF-(1,14800)
        503         11          3 -3.40638988E-04                    1_GWF-(1,11458)  5.30549012E-05                    1_GWF-(1,14801)
        504         11          4 -4.12484972E-04                    1_GWF-(1,26486)  4.18188450E-05                    1_GWF-(1,14800)
        505         11          5 -4.17357650E-04                    1_GWF-(1,26487)  3.86312786E-05                    1_GWF-(1,14801)
        506         11          6 -4.38906314E-04                    1_GWF-(1,26486)  1.33790845E-05                    1_GWF-(1,14800)
        507         11          7 -3.21207632E-04                    1_GWF-(1,26422)  2.38286376E-05                    1_GWF-(1,14800)
        508         11          8 -3.06636393E-04                    1_GWF-(1,26420)  5.03742174E-05                    1_GWF-(1,14801)
        509         11          9 -3.08409544E-04                    1_GWF-(1,11458)  4.75713817E-05                    1_GWF-(1,14800)
        510         11         10 -3.32650763E-04                    1_GWF-(1,11453)  5.46888579E-05                    1_GWF-(1,14801)
        511         11         11  3.13231610E-04                    1_GWF-(1,11453)  4.32676677E-05                    1_GWF-(1,14800)
        512         11         12  3.05354255E-04                    1_GWF-(1,26422)  4.13237540E-05                    1_GWF-(1,14801)
        513         11         13  4.37185145E-04                    1_GWF-(1,26350)  2.66230641E-05                    1_GWF-(1,14800)
        514         11         14  4.52457725E-04                    1_GWF-(1,26422)  1.87155037E-05                    1_GWF-(1,14801)
        515         11         15  4.15730160E-04                    1_GWF-(1,26350)  1.89279958E-05                    1_GWF-(1,14799)
        516         11         16  4.28185085E-04                    1_GWF-(1,26422)  2.00822312E-05                    1_GWF-(1,10966)
        517         11         17  3.37097570E-04                    1_GWF-(1,26420)  2.37708264E-05                    1_GWF-(1,14799)
        518         11         18  3.40579028E-04                    1_GWF-(1,26487)  1.45519424E-05                    1_GWF-(1,14800)
        519         11         19 -3.49870807E-04                    1_GWF-(1,26487)  1.22324277E-05                    1_GWF-(1,14801)
        520         11         20 -5.11701125E-04                    1_GWF-(1,26486)  2.54010754E-05                    1_GWF-(1,14799)
        521         11         21 -3.87747558E-04                    1_GWF-(1,26487) -2.32102250E-05                    1_GWF-(1,14799)
        522         11         22 -4.02883485E-04                    1_GWF-(1,26422)  3.41650675E-05                    1_GWF-(1,14799)
        523         11         23 -4.37977428E-04                    1_GWF-(1,26350)  2.75746801E-05                    1_GWF-(1,14800)
        524         11         24 -3.02883987E-04                    1_GWF-(1,11440)  3.26579928E-05                    1_GWF-(1,14801)
        525         11         25 -2.61577301E-04                    1_GWF-(1,11453)  2.56696608E-05                    1_GWF-(1,14800)
        526         11         26  3.41318250E-04                    1_GWF-(1,11453)  2.54058698E-05                    1_GWF-(1,14801)
        527         11         27 -2.88520045E-04                    1_GWF-(1,26588) -1.47946574E-05                    1_GWF-(1,10966)
        528         11         28  2.59447223E-04                    1_GWF-(1,26588)  1.05414674E-05                    1_GWF-(1,14798)
[...]
        672         14         22 -1.38836853E-05                    1_GWF-(1,26589)  1.25308275E-06                    1_GWF-(1,14801)
        673         14         23 -1.73469880E-05                    1_GWF-(1,11440) -1.31264649E-06                    1_GWF-(1,14801)
        674         14         24  1.92484591E-05                    1_GWF-(1,11453)  1.64214608E-06                    1_GWF-(1,14801)
        675         14         25 -1.67266855E-05                    1_GWF-(1,26350)  1.09371380E-06                    1_GWF-(1,14800)
        676         14         26 -2.10570173E-05                    1_GWF-(1,11440)  1.50939139E-06                    1_GWF-(1,14799)
        677         14         27  1.96743050E-05                    1_GWF-(1,11453) -7.80488619E-07                    1_GWF-(1,14799)
        678         14         28  1.97531528E-05                    1_GWF-(1,26588)  8.43405512E-07                    1_GWF-(1,14800)
        679         14         29  1.37908378E-05                    1_GWF-(1,26663)  1.10864498E-06                    1_GWF-(1,14801)
        680         14         30 -1.50210832E-05                    1_GWF-(1,11456)  1.06424220E-06                    1_GWF-(1,14800)
        681         14         31 -1.44770777E-05                    1_GWF-(1,26588)  1.22680634E-06                    1_GWF-(1,14799)
        682         14         32 -1.28462784E-05                    1_GWF-(1,26589)  7.47322162E-07                    1_GWF-(1,14798)
        683         14         33 -1.28976497E-05                    1_GWF-(1,26649)  4.96683796E-07                    1_GWF-(1,14799)
        684         14         34 -1.34936456E-05                    1_GWF-(1,26486)  9.15028121E-07                    1_GWF-(1,14801)
        685         14         35 -1.21886128E-05                    1_GWF-(1,26487)  9.22616535E-07                    1_GWF-(1,14800)
        686         14         36 -1.31162868E-05                    1_GWF-(1,26486)  1.37505506E-06                    1_GWF-(1,14799)
        687         14         37 -1.38325104E-05                    1_GWF-(1,26350) -9.74740112E-07                    1_GWF-(1,14799)
        688         14         38 -1.56565508E-05                    1_GWF-(1,26422)  1.23535867E-06                    1_GWF-(1,14799)
        689         14         39 -1.38991716E-05                    1_GWF-(1,26350)  6.84950062E-07                    1_GWF-(1,14798)
        690         14         40 -9.36814532E-06                    1_GWF-(1,26422)  5.53740403E-07                    1_GWF-(1,14800)
        691         14         41  1.06931544E-05                    1_GWF-(1,11415)  9.58808982E-07                    1_GWF-(1,14801)
        692         14         42 -1.07403471E-05                    1_GWF-(1,11369)  1.04139299E-06                    1_GWF-(1,14800)
        693         14         43  1.22443306E-05                    1_GWF-(1,11458)  1.53834145E-06                    1_GWF-(1,14801)
        694         14         44  1.38221876E-05                    1_GWF-(1,26350)  1.55352059E-06                    1_GWF-(1,14800)
        695         14         45  1.09254113E-05                    1_GWF-(1,26422)  1.67911261E-06                    1_GWF-(1,14801)
        696         14         46 -1.26891123E-05                    1_GWF-(1,11438)  1.27931855E-06                    1_GWF-(1,14800)
        697         14         47 -1.34428751E-05                    1_GWF-(1,11458)  1.27807518E-06                    1_GWF-(1,14801)
        698         14         48  1.02569790E-05                    1_GWF-(1,26543)  6.76573213E-07                    1_GWF-(1,14800)
        699         14         49 -9.99742138E-06                    1_GWF-(1,26486)  2.13480535E-07                    1_GWF-(1,14799)
        700         14         50 -9.74490237E-06                    1_GWF-(1,26487)  8.75986865E-07                    1_GWF-(1,14801)
        701         15          1  1.08582629E-05                    1_GWF-(1,26487)  9.95687573E-07                    1_GWF-(1,14800)
        702         15          2  1.18808250E-05                    1_GWF-(1,26486)  3.35928736E-07                    1_GWF-(1,14801)
        703         15          3 -1.06361315E-05                    1_GWF-(1,26543)  9.02871953E-07                    1_GWF-(1,14801)
        704         15          4  9.21673282E-06                    1_GWF-(1,11458) -1.44114880E-06                    1_GWF-(1,14801)
        705         15          5 -8.97407670E-06                    1_GWF-(1,26420)  1.81699538E-06                    1_GWF-(1,14801)
        706         15          6 -7.76569150E-06                    1_GWF-(1,26421) -1.49202595E-06                    1_GWF-(1,14801)
        707         15          7  1.08014428E-05                    1_GWF-(1,11458)  1.27442336E-06                    1_GWF-(1,14801)
        708         15          8  7.85028072E-06                    1_GWF-(1,26622)  4.14734821E-07                    1_GWF-(1,14800)
        709         15          9  9.49391978E-06                    1_GWF-(1,26649)  6.62035394E-07                    1_GWF-(1,14800)
        710         15         10  1.00708002E-05                    1_GWF-(1,26622)  1.34381770E-06                    1_GWF-(1,14801)
        711         15         11  8.55970696E-06                    1_GWF-(1,26649)  9.74792850E-07                    1_GWF-(1,14800)
        712         15         12  8.07337609E-06                    1_GWF-(1,11438)  7.50082345E-07                    1_GWF-(1,14801)
        713         15         13  1.13091938E-05                    1_GWF-(1,11458)  3.92515580E-07                    1_GWF-(1,14800)
        714         15         14  8.55860561E-06                    1_GWF-(1,26422)  3.60942595E-07                    1_GWF-(1,14798)
        715         15         15  7.50175110E-06                    1_GWF-(1,26487)  6.22149877E-07                    1_GWF-(1,14799)
        716         15         16  8.29561052E-06                    1_GWF-(1,26588)  4.10407753E-07                    1_GWF-(1,14800)
        717         15         17 -8.25250362E-06                    1_GWF-(1,11369)  4.49588350E-07                    1_GWF-(1,14801)
        718         15         18 -7.20100281E-06                    1_GWF-(1,26422)  4.38814999E-07                    1_GWF-(1,14799)
        719         15         19 -9.27225487E-06                    1_GWF-(1,26350) -4.07978972E-07                    1_GWF-(1,14799)
        720         15         20 -8.44894798E-06                    1_GWF-(1,11369)  7.54765331E-07                    1_GWF-(1,14799)
        721         15         21 -7.50953318E-06                    1_GWF-(1,26544) -6.46566866E-07                    1_GWF-(1,14799)
        722         15         22 -1.04332731E-05                    1_GWF-(1,26422)  9.68884719E-07                    1_GWF-(1,14799)
        723         15         23 -1.00995156E-05                    1_GWF-(1,26350) -7.36946041E-07                    1_GWF-(1,14799)
        724         15         24 -8.68809940E-06                    1_GWF-(1,26622)  7.19075908E-07                    1_GWF-(1,14801)
        725         15         25 -8.02150109E-06                    1_GWF-(1,26623)  5.36099861E-07                    1_GWF-(1,14800)
        726         15         26 -8.24612366E-06                    1_GWF-(1,26622)  4.28209892E-07                    1_GWF-(1,14801)
        727         15         27  7.72877951E-06                    1_GWF-(1,26622)  3.89543914E-07                    1_GWF-(1,14799)
        728         15         28  6.94714463E-06                    1_GWF-(1,26649) -3.36100062E-07                    1_GWF-(1,14801)
        729         15         29  6.61524940E-06                    1_GWF-(1,26622)  5.43185681E-07                    1_GWF-(1,14801)
        730         15         30  6.53644448E-06                    1_GWF-(1,26665)  4.25629262E-07                    1_GWF-(1,14800)
        731         15         31  7.84286379E-06                    1_GWF-(1,26666)  2.34340743E-07                    1_GWF-(1,14798)
        732         15         32  6.28371978E-06                    1_GWF-(1,26665)  4.45842620E-07                    1_GWF-(1,14799)
        733         15         33 -6.46091316E-06                    1_GWF-(1,26665) -3.35336880E-07                    1_GWF-(1,14799)
        734         15         34 -5.14910810E-06                    1_GWF-(1,26666)  4.61657673E-07                    1_GWF-(1,14801)
        735         15         35  4.45130286E-06                    1_GWF-(1,26623) -4.66717692E-07                    1_GWF-(1,14801)
        736         15         36  7.32064949E-06                    1_GWF-(1,26217)  5.38056096E-07                    1_GWF-(1,14801)
        737         15         37  5.78713142E-06                    1_GWF-(1,26218)  3.74880085E-07                    1_GWF-(1,14800)
        738         15         38  5.75014546E-06                    1_GWF-(1,26487)  2.79565829E-07                    1_GWF-(1,14798)
        739         15         39  5.50475086E-06                    1_GWF-(1,26486)  2.58786540E-07                    1_GWF-(1,14801)
        740         15         40 -5.95776567E-06                    1_GWF-(1,26420)  3.80122914E-07                    1_GWF-(1,14800)
        741         15         41 -6.03448854E-06                    1_GWF-(1,26487)  4.21662966E-07                    1_GWF-(1,14801)
        742         15         42 -5.60276628E-06                    1_GWF-(1,26420)  4.72719338E-07                    1_GWF-(1,14799)
        743         15         43 -4.63949505E-06                    1_GWF-(1,26218) -5.49949521E-07                    1_GWF-(1,14799)
        744         15         44  3.52949871E-06                    1_GWF-(1,11458)  7.60479910E-07                    1_GWF-(1,14799)
        745         15         45  2.85396040E-06                    1_GWF-(1,11460) -6.92377080E-07                    1_GWF-(1,14799)
        746         15         46 -3.74676564E-06                    1_GWF-(1,11439)  7.00010968E-07                    1_GWF-(1,14799)
        747         15         47 -3.32278379E-06                    1_GWF-(1,11417) -6.55159777E-07                    1_GWF-(1,14799)
        748         15         48 -3.48128637E-06                    1_GWF-(1,26588)  6.70274170E-07                    1_GWF-(1,14799)
        749         15         49  3.83270668E-06                    1_GWF-(1,26588)  1.69206163E-07                    1_GWF-(1,14798)
        750         15         50  4.41809492E-06                    1_GWF-(1,26543) -2.76451177E-07                    1_GWF-(1,14799)
        751         16          1  4.50210528E-06                    1_GWF-(1,26588)  4.78880625E-07                    1_GWF-(1,14799)
        752         16          2  3.91293050E-06                    1_GWF-(1,26589)  4.32301970E-08                    1_GWF-(1,14799)
        753         16          3  3.96960789E-06                    1_GWF-(1,11380) -3.47154721E-07                    1_GWF-(1,14799)
        754         16          4  3.95432448E-06                    1_GWF-(1,11460)  5.35449847E-07                    1_GWF-(1,14799)
        755         16          5  3.00168107E-06                    1_GWF-(1,11461) -6.16442760E-07                    1_GWF-(1,14799)
        756         16          6 -3.11436292E-06                    1_GWF-(1,26665)  7.37513755E-07                    1_GWF-(1,14799)
        757         16          7 -3.73275029E-06                    1_GWF-(1,11461) -2.52379165E-07                    1_GWF-(1,14799)
        758         16          8  2.81922803E-06                    1_GWF-(1,26420) -1.97437149E-07                    1_GWF-(1,14799)
        759         16          9  3.79835677E-06                    1_GWF-(1,26487)  6.78483956E-07                    1_GWF-(1,14799)
        760         16         10  3.89758279E-06                    1_GWF-(1,26420) -5.73559990E-07                    1_GWF-(1,14799)
        761         16         11 -2.92959082E-06                    1_GWF-(1,11460)  6.66831993E-07                    1_GWF-(1,14799)
        762         16         12 -2.66668468E-06                    1_GWF-(1,11459) -6.69051188E-07                    1_GWF-(1,14799)
        763         16         13  3.76499916E-06                    1_GWF-(1,11455)  5.83995172E-07                    1_GWF-(1,14799)
        764         16         14 -2.80829610E-06                    1_GWF-(1,26486) -1.80622868E-07                    1_GWF-(1,14799)
        765         16         15 -3.38151767E-06                    1_GWF-(1,26487) -1.77719969E-07                    1_GWF-(1,14799)
        766         16         16 -3.65290575E-06                    1_GWF-(1,26420)  4.63926359E-07                    1_GWF-(1,14799)
        767         16         17 -3.13236058E-06                    1_GWF-(1,26487) -3.78941091E-07                    1_GWF-(1,14799)
        768         16         18 -1.92081647E-06                    1_GWF-(1,11439)  3.10920194E-07                    1_GWF-(1,14799)
        769         16         19  1.92808901E-06                    1_GWF-(1,11416)  2.00486442E-07                    1_GWF-(1,14801)
        770         16         20  2.69586091E-06                    1_GWF-(1,11456)  1.51758932E-07                    1_GWF-(1,14800)
        771         16         21 -2.86891626E-06                    1_GWF-(1,26623)  1.22434802E-07                    1_GWF-(1,14799)
        772         16         22 -3.40842000E-06                    1_GWF-(1,26622)  1.49368199E-07                    1_GWF-(1,14798)
        773         16         23 -2.83474925E-06                    1_GWF-(1,26649)  2.10288073E-07                    1_GWF-(1,14799)
        774         16         24 -2.78083720E-06                    1_GWF-(1,11456)  1.46535125E-07                    1_GWF-(1,14801)
        775         16         25  2.12304437E-06                    1_GWF-(1,26622)  1.18438987E-07                    1_GWF-(1,14800)
        776         16         26  2.50784812E-06                    1_GWF-(1,26588)  2.35076319E-07                    1_GWF-(1,14799)
        777         16         27  3.02611691E-06                    1_GWF-(1,26543) -1.46345483E-07                    1_GWF-(1,14799)
        778         16         28  2.79177496E-06                    1_GWF-(1,26588)  1.23961935E-07                    1_GWF-(1,14800)
        779         16         29  1.69253910E-06                    1_GWF-(1,26666)  1.51352620E-07                    1_GWF-(1,14801)
        780         16         30  1.58618219E-06                    1_GWF-(1,26665)  1.39431911E-07                    1_GWF-(1,14800)
        781         16         31  1.74975386E-06                    1_GWF-(1,26544)  1.71441302E-07                    1_GWF-(1,14801)
        782         16         32  1.63006204E-06                    1_GWF-(1,26422) -1.50032757E-07                    1_GWF-(1,14799)
        783         16         33  1.78112680E-06                    1_GWF-(1,26350)  2.54628719E-07                    1_GWF-(1,14799)
        784         16         34 -1.42227215E-06                    1_GWF-(1,26544) -1.84770894E-07                    1_GWF-(1,14799)
        785         16         35 -2.24830396E-06                    1_GWF-(1,26422)  1.89117646E-07                    1_GWF-(1,14799)
        786         16         36 -1.73671371E-06                    1_GWF-(1,26350)  6.15236898E-08                    1_GWF-(1,14798)
        787         16         37  1.74423528E-06                    1_GWF-(1,26649)  7.67399295E-08                    1_GWF-(1,14800)
        788         16         38  1.46402572E-06                    1_GWF-(1,26622)  1.89336547E-07                    1_GWF-(1,14799)
        789         16         39 -1.45406354E-06                    1_GWF-(1,26350)  1.20002069E-07                    1_GWF-(1,14798)
        790         16         40  1.24400538E-06                    1_GWF-(1,11458)  1.13757035E-07                    1_GWF-(1,14799)
        791         16         41  1.18356784E-06                    1_GWF-(1,11440)  9.82001422E-08                    1_GWF-(1,14801)
        792         16         42  1.24584841E-06                    1_GWF-(1,26420)  1.11985886E-07                    1_GWF-(1,14800)
        793         16         43  1.63354901E-06                    1_GWF-(1,26487)  1.18737778E-07                    1_GWF-(1,14801)
        794         16         44  1.73299715E-06                    1_GWF-(1,26420)  5.55677154E-08                    1_GWF-(1,14798)
        795         16         45  1.77346537E-06                    1_GWF-(1,26487)  5.55618255E-08                    1_GWF-(1,14800)
        796         16         46  1.82160496E-06                    1_GWF-(1,26486)  1.23876690E-07                    1_GWF-(1,14801)
        797         16         47  1.39839166E-06                    1_GWF-(1,26544)  1.41124827E-07                    1_GWF-(1,14800)
        798         16         48  1.63625777E-06                    1_GWF-(1,26543)  1.63649440E-07                    1_GWF-(1,14801)
        799         16         49  1.72018791E-06                    1_GWF-(1,26588)  6.82576159E-08                    1_GWF-(1,14800)
        800         16         50  1.12618307E-06                    1_GWF-(1,26589)  5.75788230E-08                    1_GWF-(1,14800)
        801         17          1 -1.09706292E-06                    1_GWF-(1,26589)  9.85167987E-08                    1_GWF-(1,14801)
        802         17          2 -1.95264550E-06                    1_GWF-(1,26588)  4.41311764E-08                    1_GWF-(1,14800)
        803         17          3 -1.35043881E-06                    1_GWF-(1,26543)  3.86769296E-08                    1_GWF-(1,14800)
        804         17          4 -1.11221614E-06                    1_GWF-(1,26544)  8.06651956E-08                    1_GWF-(1,14801)
        805         17          5 -1.39955308E-06                    1_GWF-(1,26486)  1.19360136E-07                    1_GWF-(1,14800)
        806         17          6 -1.10961996E-06                    1_GWF-(1,26487)  1.13142134E-07                    1_GWF-(1,14801)
        807         17          7 -1.17298743E-06                    1_GWF-(1,26486)  6.50277417E-08                    1_GWF-(1,14800)
        808         17          8 -1.39231092E-06                    1_GWF-(1,26487)  2.38067052E-08                    1_GWF-(1,14798)
        809         17          9 -1.15610142E-06                    1_GWF-(1,26420)  1.02061659E-07                    1_GWF-(1,14801)
        810         17         10  1.05419865E-06                    1_GWF-(1,26420)  1.28393595E-07                    1_GWF-(1,14800)
        811         17         11  9.29809989E-07                    1_GWF-(1,11454)  1.36376914E-07                    1_GWF-(1,14801)
        812         18          1  6.55334335E-07                    1_GWF-(1,26420)  1.19016260E-07                    1_GWF-(1,14800)
 --------------------------------------------------------------------------------------------------------------------------------------



 MEMORY MANAGER TOTAL STORAGE BY DATA TYPE, IN MEGABYTES
 -------------------------------
                    ALLOCATED   
 DATA TYPE           MEMORY     
 -------------------------------
 Character        4.66090000E-02
 Logical          4.40000000E-05
 Integer          5.2037920     
 Real             11.901376     
 -------------------------------
 Total            17.151821     
 -------------------------------


 
 Run end date and time (yyyy/mm/dd hh:mm:ss): 2022/06/01 19:47:31
 Elapsed run time:  0.715 Seconds
 Normal termination of simulation.
