                                   MODFLOW 6
                U.S. GEOLOGICAL SURVEY MODULAR HYDROLOGIC MODEL
                          GROUNDWATER FLOW MODEL (GWF)
                            VERSION 6.2.2 07/30/2021

   MODFLOW 6 compiled Jul 31 2021 14:22:53 with IFORT compiler (ver. 19.10.3)

This software has been approved for release by the U.S. Geological 
Survey (USGS). Although the software has been subjected to rigorous 
review, the USGS reserves the right to update the software as needed 
pursuant to further analysis and review. No warranty, expressed or 
implied, is made by the USGS or the U.S. Government as to the 
functionality of the software and related material nor shall the 
fact of release constitute any such warranty. Furthermore, the 
software is released on condition that neither the USGS nor the U.S. 
Government shall be held liable for any damages resulting from its 
authorized or unauthorized use. Also refer to the USGS Water 
Resources Software User Rights Notice for complete use, copyright, 
and distribution information.


System command used to initiate simulation:
mf6

MODFLOW was compiled using uniform precision.

Real Variables
  KIND: 8
  TINY (smallest non-zero value):    2.225074-308
  HUGE (largest value):    1.797693+308
  PRECISION: 15
  BIT SIZE: 64

Integer Variables
  KIND: 4
  HUGE (largest value): 2147483647
  BIT SIZE: 32

Long Integer Variables
  KIND: 8
  HUGE (largest value): 9223372036854775807
  BIT SIZE: 64

Logical Variables
  KIND: 4
  BIT SIZE: 32
 

 OPENED ./ml.disv
 FILE TYPE:DISV6                  UNIT 1005   STATUS:OLD                 
 FORMAT:FORMATTED              ACCESS:SEQUENTIAL          
 ACTION:READ                


 OPENED ./ml.ic
 FILE TYPE:IC6                    UNIT 1006   STATUS:OLD                 
 FORMAT:FORMATTED              ACCESS:SEQUENTIAL          
 ACTION:READ                


 OPENED ./ml.npf
 FILE TYPE:NPF6                   UNIT 1007   STATUS:OLD                 
 FORMAT:FORMATTED              ACCESS:SEQUENTIAL          
 ACTION:READ                


 OPENED ./ml.ghb
 FILE TYPE:GHB6                   UNIT 1008   STATUS:OLD                 
 FORMAT:FORMATTED              ACCESS:SEQUENTIAL          
 ACTION:READ                


 OPENED ./ml.rcha
 FILE TYPE:RCH6                   UNIT 1009   STATUS:OLD                 
 FORMAT:FORMATTED              ACCESS:SEQUENTIAL          
 ACTION:READ                


 OPENED ./ml.obs
 FILE TYPE:OBS6                   UNIT 1010   STATUS:OLD                 
 FORMAT:FORMATTED              ACCESS:SEQUENTIAL          
 ACTION:READ                


 OPENED ./ml.oc
 FILE TYPE:OC6                    UNIT 1011   STATUS:OLD                 
 FORMAT:FORMATTED              ACCESS:SEQUENTIAL          
 ACTION:READ                


 OPENED ml.wel
 FILE TYPE:WEL6                   UNIT 1012   STATUS:OLD                 
 FORMAT:FORMATTED              ACCESS:SEQUENTIAL          
 ACTION:READ                


 OPENED ml.drn
 FILE TYPE:DRN6                   UNIT 1013   STATUS:OLD                 
 FORMAT:FORMATTED              ACCESS:SEQUENTIAL          
 ACTION:READ                


 OPENED ml.riv
 FILE TYPE:RIV6                   UNIT 1014   STATUS:OLD                 
 FORMAT:FORMATTED              ACCESS:SEQUENTIAL          
 ACTION:READ                


 DISV -- VERTEX GRID DISCRETIZATION PACKAGE, VERSION 1 : 12/23/2015 - INPUT READ FROM UNIT 1005


 # File generated by Flopy version 3.3.5 on 04/28/2022 at 15:59:09.

 PROCESSING DISCRETIZATION OPTIONS
    MODEL LENGTH UNIT IS METERS
    XORIGIN SPECIFIED AS     405575.681000000    
    YORIGIN SPECIFIED AS     6423306.54000000    
 END OF DISCRETIZATION OPTIONS

 PROCESSING DISCRETIZATION DIMENSIONS
   NLAY = 1
   NCPL = 26674
   NVERT = 27090
 END OF DISCRETIZATION DIMENSIONS

 PROCESSING GRIDDATA
 END PROCESSING GRIDDATA

 PROCESSING VERTICES
   SUCCESSFULLY READ 27090 (X,Y) COORDINATES
   MINIMUM X COORDINATE =     405575.681000000    
   MAXIMUM X COORDINATE =     413975.681000000    
   MINIMUM Y COORDINATE =     6423306.54000000    
   MAXIMUM Y COORDINATE =     6432506.54000000    
 END PROCESSING VERTICES

 PROCESSING CELL2D
   SUCCESSFULLY READ 26674 CELL2D INFORMATION ENTRIES
   MINIMUM X CELL CENTER =     405675.681000000    
   MAXIMUM X CELL CENTER =     413875.681000000    
   MINIMUM Y CELL CENTER =     6423406.54000000    
   MAXIMUM Y CELL CENTER =     6432406.54000000    
   MAXIMUM NUMBER OF CELL2D VERTICES IS 6 FOR CELL 208
 END PROCESSING VERTICES

 NPF -- NODE PROPERTY FLOW PACKAGE, VERSION 1, 3/30/2015 INPUT READ FROM UNIT 1007


 # File generated by Flopy version 3.3.5 on 04/28/2022 at 15:59:11.
 PROCESSING NPF OPTIONS
    CELL-BY-CELL FLOW INFORMATION WILL BE SAVED TO BINARY FILE WHENEVER ICBCFL IS NOT ZERO.
    SPECIFIC DISCHARGE WILL BE CALCULATED AT CELL CENTERS AND WRITTEN TO DATA-SPDIS IN BUDGET FILE WHEN REQUESTED.
 END OF NPF OPTIONS

 WEL   -- WEL PACKAGE, VERSION 8, 2/22/2014 INPUT READ FROM UNIT 1012
 # File generated by Flopy version 3.3.5 on 04/28/2022 at 15:59:11.

 PROCESSING WEL OPTIONS
    WEL BOUNDARIES HAVE NAMES IN LAST COLUMN.
    FLOWS WILL BE SAVED TO BUDGET FILE SPECIFIED IN OUTPUT CONTROL
 END OF WEL OPTIONS

 PROCESSING WEL DIMENSIONS
    MAXBOUND =       9
 END OF WEL DIMENSIONS

 DRN   -- DRN PACKAGE, VERSION 8, 2/22/2014 INPUT READ FROM UNIT 1013
 # File generated by Flopy version 3.3.5 on 04/28/2022 at 15:59:11.

 PROCESSING DRN OPTIONS
    DRN BOUNDARIES HAVE NAMES IN LAST COLUMN.
    FLOWS WILL BE SAVED TO BUDGET FILE SPECIFIED IN OUTPUT CONTROL

 OPENED ml.drn.obs
 FILE TYPE:OBS   UNIT 1016   STATUS:OLD                 
 FORMAT:FORMATTED              ACCESS:SEQUENTIAL          
 ACTION:READ                

 END OF DRN OPTIONS

 PROCESSING DRN DIMENSIONS
    MAXBOUND =     133
 END OF DRN DIMENSIONS

 RIV   -- RIV PACKAGE, VERSION 8, 2/22/2014 INPUT READ FROM UNIT 1014
 # File generated by Flopy version 3.3.5 on 04/28/2022 at 15:59:11.

 PROCESSING RIV OPTIONS
    AUXILIARY RIV VARIABLE: FID             
    RIV BOUNDARIES HAVE NAMES IN LAST COLUMN.
    FLOWS WILL BE SAVED TO BUDGET FILE SPECIFIED IN OUTPUT CONTROL
 END OF RIV OPTIONS

 PROCESSING RIV DIMENSIONS
    MAXBOUND =     794
 END OF RIV DIMENSIONS

 GHB   -- GHB PACKAGE, VERSION 8, 2/22/2014 INPUT READ FROM UNIT 1008
 # File generated by Flopy version 3.3.5 on 04/28/2022 at 15:59:11.

 PROCESSING GHB OPTIONS
    GHB BOUNDARIES HAVE NAMES IN LAST COLUMN.
    FLOWS WILL BE SAVED TO BUDGET FILE SPECIFIED IN OUTPUT CONTROL
 END OF GHB OPTIONS

 PROCESSING GHB DIMENSIONS
    MAXBOUND =     153
 END OF GHB DIMENSIONS

 RCH   -- RCH PACKAGE, VERSION 8, 2/22/2014 INPUT READ FROM UNIT 1009
 # File generated by Flopy version 3.3.5 on 04/28/2022 at 15:59:11.

 PROCESSING RCH OPTIONS
    RECHARGE INPUT WILL BE READ AS ARRAY(S).
    FLOWS WILL BE SAVED TO BUDGET FILE SPECIFIED IN OUTPUT CONTROL
 END OF RCH OPTIONS

 IC -- INITIAL CONDITIONS PACKAGE, VERSION 8, 3/28/2015 INPUT READ FROM UNIT 1006
 # File generated by Flopy version 3.3.5 on 04/28/2022 at 15:59:11.
 PROCESSING GRIDDATA

     INITIAL HEAD =   15.00000    
 END PROCESSING GRIDDATA
 PROCESSING GRIDDATA

                ICELLTYPE = 0

 OPENED ../com_ext/k.txt
 FILE TYPE:OPEN/CLOSE   UNIT 1017   STATUS:OLD                 
 FORMAT:FORMATTED              ACCESS:SEQUENTIAL          
 ACTION:READ                

 K33 not provided.  Assuming K33 = K.
 K22 not provided.  Assuming K22 = K.
 END PROCESSING GRIDDATA

The observation utility is active for "ML"
 # File generated by Flopy version 3.3.5 on 04/28/2022 at 15:59:11.

Processing observation options:

Text output number of digits of precision set to: 10
The PRINT_INPUT option has been specified.


 OBSERVATIONS READ FROM FILE "ml.obs"
 ----------------------------------------------------------------------------------------------------------------------------------------------------------------------------------------------------------------------------
 NAME                                     TYPE                                       TIME         LOCATION DATA                              OUTPUT FILENAME                                                                 
 ----------------------------------------------------------------------------------------------------------------------------------------------------------------------------------------------------------------------------
 PRG                                      CONTINUOUS  HEAD                           ALL TIMES    "1 16523"                                  sim/hds.csv                                                                     
 P8                                       CONTINUOUS  HEAD                           ALL TIMES    "1 10323"                                  sim/hds.csv                                                                     
 P24                                      CONTINUOUS  HEAD                           ALL TIMES    "1 9594"                                   sim/hds.csv                                                                     
 P25                                      CONTINUOUS  HEAD                           ALL TIMES    "1 13966"                                  sim/hds.csv                                                                     
 P32                                      CONTINUOUS  HEAD                           ALL TIMES    "1 15787"                                  sim/hds.csv                                                                     
 P33                                      CONTINUOUS  HEAD                           ALL TIMES    "1 15825"                                  sim/hds.csv                                                                     
 PF                                       CONTINUOUS  HEAD                           ALL TIMES    "1 21048"                                  sim/hds.csv                                                                     
 PH                                       CONTINUOUS  HEAD                           ALL TIMES    "1 20781"                                  sim/hds.csv                                                                     
 PZHM1                                    CONTINUOUS  HEAD                           ALL TIMES    "1 14521"                                  sim/hds.csv                                                                     
 P26                                      CONTINUOUS  HEAD                           ALL TIMES    "1 13141"                                  sim/hds.csv                                                                     
 P27                                      CONTINUOUS  HEAD                           ALL TIMES    "1 8465"                                   sim/hds.csv                                                                     
 P28                                      CONTINUOUS  HEAD                           ALL TIMES    "1 8924"                                   sim/hds.csv                                                                     
 P29                                      CONTINUOUS  HEAD                           ALL TIMES    "1 4524"                                   sim/hds.csv                                                                     
 P30                                      CONTINUOUS  HEAD                           ALL TIMES    "1 5255"                                   sim/hds.csv                                                                     
 R20                                      CONTINUOUS  HEAD                           ALL TIMES    "1 10676"                                  sim/hds.csv                                                                     
 R21                                      CONTINUOUS  HEAD                           ALL TIMES    "1 10403"                                  sim/hds.csv                                                                     
 P34                                      CONTINUOUS  HEAD                           ALL TIMES    "1 15131"                                  sim/hds.csv                                                                     
 P37                                      CONTINUOUS  HEAD                           ALL TIMES    "1 15755"                                  sim/hds.csv                                                                     
 P38                                      CONTINUOUS  HEAD                           ALL TIMES    "1 15045"                                  sim/hds.csv                                                                     
 P39                                      CONTINUOUS  HEAD                           ALL TIMES    "1 9637"                                   sim/hds.csv                                                                     
 P40                                      CONTINUOUS  HEAD                           ALL TIMES    "1 9312"                                   sim/hds.csv                                                                     
 AP1                                      CONTINUOUS  HEAD                           ALL TIMES    "1 9702"                                   sim/hds.csv                                                                     
 RCK1                                     CONTINUOUS  HEAD                           ALL TIMES    "1 15900"                                  sim/hds.csv                                                                     
 RCK2                                     CONTINUOUS  HEAD                           ALL TIMES    "1 15199"                                  sim/hds.csv                                                                     
 P23                                      CONTINUOUS  HEAD                           ALL TIMES    "1 6409"                                   sim/hds.csv                                                                     
 ----------------------------------------------------------------------------------------------------------------------------------------------------------------------------------------------------------------------------


    BINARY GRID INFORMATION WILL BE WRITTEN TO:
      UNIT NUMBER: 1019
      FILE NAME: /srv/common/ptrack/case_study/pst/ml_06/./ml.disv.grb

 OPENED /srv/common/ptrack/case_study/pst/ml_06/./ml.disv.grb
 FILE TYPE:DATA(BINARY)   UNIT 1019   STATUS:REPLACE             
 FORMAT:UNFORMATTED            ACCESS:STREAM              
 ACTION:READWRITE           

      THE LAST TIME STEP WILL BE PRINTED
      THE LAST TIME STEP WILL BE PRINTED
 # File generated by Flopy version 3.3.5 on 04/28/2022 at 15:59:11.

 PROCESSING OC OPTIONS

    BUDGET INFORMATION WILL BE WRITTEN TO:
      UNIT NUMBER: 1020
      FILE NAME: ml.cbc

 OPENED ml.cbc
 FILE TYPE:DATA(BINARY)   UNIT 1020   STATUS:REPLACE             
 FORMAT:UNFORMATTED            ACCESS:STREAM              
 ACTION:READWRITE           

    HEAD INFORMATION WILL BE WRITTEN TO:
      UNIT NUMBER: 1021
      FILE NAME: ml.hds

 OPENED ml.hds
 FILE TYPE:DATA(BINARY)   UNIT 1021   STATUS:REPLACE             
 FORMAT:UNFORMATTED            ACCESS:STREAM              
 ACTION:READWRITE           

 END OF OC OPTIONS

The observation utility is active for "DRN_0"
 # File generated by Flopy version 3.3.5 on 04/28/2022 at 15:59:11.

Processing observation options:



start timestep kper="1" kstp="1" mode="normal"


 BEGIN READING OUTPUT CONTROL FOR STRESS PERIOD 1
      THE LAST TIME STEP WILL BE SAVED
      THE LAST TIME STEP WILL BE SAVED

 END READING OUTPUT CONTROL FOR STRESS PERIOD 1

 OPENED ext/wel_spd_1.txt
 FILE TYPE:OPEN/CLOSE   UNIT 1023   STATUS:OLD                 
 FORMAT:FORMATTED              ACCESS:SEQUENTIAL          
 ACTION:READ                


 OPENED ext/drn_spd_1.txt
 FILE TYPE:OPEN/CLOSE   UNIT 1024   STATUS:OLD                 
 FORMAT:FORMATTED              ACCESS:SEQUENTIAL          
 ACTION:READ                


 OPENED ext/riv_spd_1.txt
 FILE TYPE:OPEN/CLOSE   UNIT 1025   STATUS:OLD                 
 FORMAT:FORMATTED              ACCESS:SEQUENTIAL          
 ACTION:READ                


 OPENED ../com_ext/ghb_spd_1.txt
 FILE TYPE:OPEN/CLOSE   UNIT 1026   STATUS:OLD                 
 FORMAT:FORMATTED              ACCESS:SEQUENTIAL          
 ACTION:READ                


 OPENED ../com_ext/rech_spd_1.txt
 FILE TYPE:OPEN/CLOSE   UNIT 1027   STATUS:OLD                 
 FORMAT:FORMATTED              ACCESS:SEQUENTIAL          
 ACTION:READ                


 SLN_1 INNER ITERATION SUMMARY
 --------------------------------------------------------------------------------------------------------------------------------------
      TOTAL      OUTER      INNER                                                            MAXIMUM                                   
  ITERATION  ITERATION  ITERATION  MAXIMUM CHANGE      MAXIMUM CHANGE MODEL-(CELLID)        RESIDUAL    MAXIMUM RESIDUAL MODEL-(CELLID)
 --------------------------------------------------------------------------------------------------------------------------------------
          1          1          1      -11.761916                    1_GWF-(1,12785)      0.32866513                    1_GWF-(1,11169)
          2          1          2       5.5414370                    1_GWF-(1,26601)     -0.22717368                    1_GWF-(1,11169)
          3          1          3       5.7830311                    1_GWF-(1,26565)     -0.14005898                    1_GWF-(1,11178)
          4          1          4       5.9421003                    1_GWF-(1,26512)      0.16236274                    1_GWF-(1,11178)
          5          1          5       5.6242895                    1_GWF-(1,26611)     -0.12297783                    1_GWF-(1,11180)
          6          1          6       5.9632594                    1_GWF-(1,26649)     -0.11557366                    1_GWF-(1,11157)
          7          1          7       4.8597308                    1_GWF-(1,26622) -6.85866856E-02                    1_GWF-(1,11158)
          8          1          8       3.9282750                    1_GWF-(1,26665) -6.86675617E-02                    1_GWF-(1,11180)
          9          1          9      -3.2499298                    1_GWF-(1,26665)  5.23354688E-02                    1_GWF-(1,11051)
         10          1         10      -2.8516598                    1_GWF-(1,26666) -5.55843621E-02                    1_GWF-(1,11158)
         11          1         11       2.5742493                    1_GWF-(1,26544) -5.90375856E-02                    1_GWF-(1,11180)
         12          1         12      -2.8759441                    1_GWF-(1,26622)  3.96454482E-02                    1_GWF-(1,11058)
         13          1         13      -3.4598167                    1_GWF-(1,26649)  4.32281487E-02                    1_GWF-(1,11180)
         14          1         14      -2.6516431                    1_GWF-(1,26622) -4.09694207E-02                    1_GWF-(1,11180)
         15          1         15      -1.8082861                    1_GWF-(1,26623)  2.85070906E-02                    1_GWF-(1,11026)
         16          1         16       1.3542386                    1_GWF-(1,26623)  4.89823515E-02                    1_GWF-(1,11180)
         17          1         17       1.6397845                    1_GWF-(1,26665)  4.01706310E-02                    1_GWF-(1,11051)
         18          1         18       1.9953835                    1_GWF-(1,26588) -3.42640387E-02                    1_GWF-(1,11194)
         19          1         19      -2.1955024                    1_GWF-(1,26588)  4.01496185E-02                    1_GWF-(1,11180)
         20          1         20      -1.7884004                    1_GWF-(1,26543) -2.50850165E-02                    1_GWF-(1,11104)
         21          1         21      -1.3872856                    1_GWF-(1,26544) -2.98776136E-02                    1_GWF-(1,11194)
         22          1         22      -1.6870703                    1_GWF-(1,26486)  3.26516959E-02                    1_GWF-(1,11180)
         23          1         23      -2.1036344                    1_GWF-(1,26487) -2.64493265E-02                    1_GWF-(1,11106)
         24          1         24      -2.2821542                    1_GWF-(1,26486) -3.00202191E-02                    1_GWF-(1,11194)
         25          1         25       1.9747904                    1_GWF-(1,26420) -3.57964117E-02                    1_GWF-(1,11109)
         26          1         26       2.1583855                    1_GWF-(1,26487)  2.82309520E-02                    1_GWF-(1,11151)
         27          1         27       1.8632283                    1_GWF-(1,26420) -2.80750549E-02                    1_GWF-(1,11101)
         28          1         28       1.2494475                    1_GWF-(1,26487) -3.16490186E-02                    1_GWF-(1,11109)
         29          1         29      0.90611852                    1_GWF-(1,26420)  3.31274039E-02                    1_GWF-(1,11109)
         30          1         30     -0.86731240                    1_GWF-(1,26350)  3.42380376E-02                    1_GWF-(1,11110)
         31          1         31      -1.1826376                    1_GWF-(1,26422)  2.76733405E-02                    1_GWF-(1,11105)
         32          1         32      -1.3037604                    1_GWF-(1,26350)  2.41642022E-02                     1_GWF-(1,5617)
         33          1         33      -1.4232004                    1_GWF-(1,26422)  2.87643132E-02                    1_GWF-(1,11110)
         34          1         34      -1.2148424                    1_GWF-(1,26350)  2.75188001E-02                    1_GWF-(1,11105)
         35          1         35     -0.96463983                    1_GWF-(1,26422) -3.50299304E-02                    1_GWF-(1,11105)
         36          1         36     -0.84949599                    1_GWF-(1,25252) -3.93020643E-02                    1_GWF-(1,11114)
         37          1         37     -0.98511832                    1_GWF-(1,25240)  2.73076539E-02                    1_GWF-(1,11114)
         38          1         38      -1.0733877                    1_GWF-(1,25322)  3.19658160E-02                    1_GWF-(1,11103)
         39          1         39      -1.1720826                    1_GWF-(1,25455) -3.59578071E-02                    1_GWF-(1,11096)
         40          1         40      -1.1224180                    1_GWF-(1,20223)  3.72147555E-02                    1_GWF-(1,15107)
         41          1         41      -1.1659343                    1_GWF-(1,21381)  3.84717284E-02                    1_GWF-(1,11093)
         42          1         42      -1.4037719                    1_GWF-(1,21458) -4.19848134E-02                    1_GWF-(1,11093)
         43          1         43      -1.7417454                    1_GWF-(1,21462) -4.74441318E-02                    1_GWF-(1,11094)
         44          1         44      -1.8916335                    1_GWF-(1,21417)  4.89981569E-02                    1_GWF-(1,15107)
         45          1         45      -1.5569019                    1_GWF-(1,21437)  3.53927564E-02                    1_GWF-(1,11091)
         46          1         46      -1.3050128                    1_GWF-(1,20575)  3.15958081E-02                    1_GWF-(1,11093)
         47          1         47      -1.2809564                    1_GWF-(1,20920)  2.92354995E-02                    1_GWF-(1,11094)
         48          1         48      -1.2219529                    1_GWF-(1,26218) -2.58998158E-02                    1_GWF-(1,11094)
         49          1         49      -1.2228265                    1_GWF-(1,26217) -2.42587939E-02                    1_GWF-(1,11091)
         50          1         50      -1.4075262                    1_GWF-(1,26218)  2.05738645E-02                    1_GWF-(1,14801)
         51          2          1      -20.665301                    1_GWF-(1,26519) -8.71435632E-02                    1_GWF-(1,26519)
         52          2          2      -7.9665908                    1_GWF-(1,26569) -3.44299384E-02                    1_GWF-(1,26516)
         53          2          3      -4.0882694                    1_GWF-(1,26637)  2.14078023E-02                    1_GWF-(1,26516)
         54          2          4      -4.0362588                    1_GWF-(1,26665) -1.50877840E-02                    1_GWF-(1,26519)
         55          2          5      -2.6808430                    1_GWF-(1,26648)  1.27602764E-02                    1_GWF-(1,14799)
         56          2          6      -1.9891591                    1_GWF-(1,26586)  1.31853465E-02                    1_GWF-(1,14801)
         57          2          7      -1.7791967                    1_GWF-(1,26543)  1.16830805E-02                    1_GWF-(1,14799)
         58          2          8      -1.6490742                    1_GWF-(1,26486)  1.23101836E-02                    1_GWF-(1,14801)
         59          2          9      -1.4086916                    1_GWF-(1,26487)  1.06743504E-02                    1_GWF-(1,14799)
         60          2         10      -1.3688864                    1_GWF-(1,26218)  1.03985366E-02                    1_GWF-(1,14801)
         61          2         11      -1.3790459                    1_GWF-(1,26422)  9.34398743E-03                    1_GWF-(1,14801)
         62          2         12      -1.1272097                    1_GWF-(1,26217)  8.28577524E-03                    1_GWF-(1,14799)
         63          2         13      -1.0369898                    1_GWF-(1,26218)  8.57188194E-03                    1_GWF-(1,14801)
         64          2         14     -0.67949044                    1_GWF-(1,26649)  7.75901350E-03                    1_GWF-(1,14801)
         65          2         15     -0.62281436                    1_GWF-(1,26622)  7.56756023E-03                    1_GWF-(1,14801)
         66          2         16      0.95351579                    1_GWF-(1,26420)  8.08020655E-03                    1_GWF-(1,14801)
         67          2         17       1.2471860                    1_GWF-(1,26350)  7.50504846E-03                    1_GWF-(1,14799)
         68          2         18      0.96109669                    1_GWF-(1,26217)  7.94061623E-03                    1_GWF-(1,14801)
         69          2         19      0.70527861                    1_GWF-(1,26218)  7.99980417E-03                    1_GWF-(1,14801)
         70          2         20      0.51898324                    1_GWF-(1,26486)  7.61887764E-03                    1_GWF-(1,14801)
         71          2         21      0.83550452                    1_GWF-(1,26588)  8.13414704E-03                    1_GWF-(1,14801)
         72          2         22      0.93485675                    1_GWF-(1,26543)  7.75596651E-03                    1_GWF-(1,14801)
         73          2         23      0.60246559                    1_GWF-(1,25712)  8.09075559E-03                    1_GWF-(1,14801)
         74          2         24     -0.63384718                    1_GWF-(1,26422)  9.28643365E-03                    1_GWF-(1,14801)
         75          2         25     -0.87284052                    1_GWF-(1,26486)  9.35619672E-03                    1_GWF-(1,14799)
         76          2         26     -0.95436965                    1_GWF-(1,26487)  1.00656104E-02                    1_GWF-(1,14801)
         77          2         27     -0.60991686                    1_GWF-(1,26420)  1.03028985E-02                    1_GWF-(1,14801)
         78          2         28      0.34198291                    1_GWF-(1,25453)  1.00377553E-02                    1_GWF-(1,14799)
         79          2         29      0.40002216                    1_GWF-(1,26487)  1.08954192E-02                    1_GWF-(1,14801)
         80          2         30      0.41545362                    1_GWF-(1,26420)  1.04156091E-02                    1_GWF-(1,14799)
         81          2         31      0.35972731                    1_GWF-(1,25266)  1.11012647E-02                    1_GWF-(1,14801)
         82          2         32     -0.33364660                    1_GWF-(1,26157)  1.06548320E-02                    1_GWF-(1,14799)
         83          2         33     -0.30547911                    1_GWF-(1,26150)  1.03884315E-02                    1_GWF-(1,14801)
         84          2         34      0.26382477                    1_GWF-(1,26586)  8.90414632E-03                    1_GWF-(1,14799)
         85          2         35      0.33719943                    1_GWF-(1,26623)  8.19144947E-03                    1_GWF-(1,14801)
         86          2         36      0.27324299                    1_GWF-(1,26649)  6.57160344E-03                    1_GWF-(1,14799)
         87          2         37     -0.32246047                    1_GWF-(1,26350)  6.61758339E-03                    1_GWF-(1,14801)
         88          2         38     -0.31273600                    1_GWF-(1,26422)  6.29536122E-03                    1_GWF-(1,14801)
         89          2         39     -0.35366633                    1_GWF-(1,26649)  6.63238984E-03                    1_GWF-(1,14799)
         90          2         40     -0.39390405                    1_GWF-(1,26422)  7.15851045E-03                    1_GWF-(1,14801)
         91          2         41      0.28348252                    1_GWF-(1,26422)  7.10184515E-03                    1_GWF-(1,14799)
         92          2         42      0.32423610                    1_GWF-(1,26350)  7.78090228E-03                    1_GWF-(1,14801)
         93          2         43     -0.29954063                    1_GWF-(1,26350)  7.21308320E-03                    1_GWF-(1,14799)
         94          2         44      0.34372061                    1_GWF-(1,21281)  7.49013365E-03                    1_GWF-(1,14801)
         95          2         45      0.41001400                    1_GWF-(1,21264)  6.57854764E-03                    1_GWF-(1,26625)
         96          2         46      0.43354260                    1_GWF-(1,20917)  4.48457264E-03                    1_GWF-(1,14801)
         97          2         47      0.36814478                    1_GWF-(1,20232) -3.31723782E-03                    1_GWF-(1,15940)
         98          2         48     -0.31671778                    1_GWF-(1,26665)  7.61796954E-03                    1_GWF-(1,26625)
         99          2         49     -0.33743455                    1_GWF-(1,21377) -6.45048826E-03                    1_GWF-(1,26625)
        100          2         50     -0.42575523                    1_GWF-(1,21349)  6.34680018E-03                    1_GWF-(1,15109)
        101          3          1     -0.96567600                    1_GWF-(1,16214) -4.19640193E-03                    1_GWF-(1,11460)
        102          3          2     -0.56095957                    1_GWF-(1,16200)  3.63699024E-03                    1_GWF-(1,15109)
        103          3          3     -0.37053851                    1_GWF-(1,16233)  5.03794205E-03                    1_GWF-(1,15108)
        104          3          4     -0.31769391                    1_GWF-(1,16536) -4.97130209E-03                    1_GWF-(1,15108)
        105          3          5     -0.27222104                    1_GWF-(1,21263) -3.69531954E-03                    1_GWF-(1,15109)
        106          3          6     -0.27703640                    1_GWF-(1,21260) -2.91705584E-03                    1_GWF-(1,15108)
        107          3          7      0.23659598                    1_GWF-(1,16538)  2.41800211E-03                    1_GWF-(1,15107)
        108          3          8      0.16784201                    1_GWF-(1,16545)  2.36052483E-03                    1_GWF-(1,11460)
        109          3          9     -0.17522959                    1_GWF-(1,16537)  2.18136263E-03                    1_GWF-(1,14799)
        110          3         10     -0.21494317                    1_GWF-(1,16542)  2.83084514E-03                    1_GWF-(1,14801)
        111          3         11     -0.19583926                    1_GWF-(1,16569)  3.22408128E-03                    1_GWF-(1,14799)
        112          3         12      0.18215459                    1_GWF-(1,26350)  2.88738338E-03                    1_GWF-(1,15108)
        113          3         13      0.21517083                    1_GWF-(1,26422) -2.56441115E-03                    1_GWF-(1,15108)
        114          3         14      0.23524481                    1_GWF-(1,26350)  2.08631782E-03                    1_GWF-(1,15108)
        115          3         15      0.19632738                    1_GWF-(1,26422)  1.75549134E-03                    1_GWF-(1,14801)
        116          3         16     -0.13243685                    1_GWF-(1,26422)  1.73232600E-03                    1_GWF-(1,14799)
        117          3         17     -0.10872978                    1_GWF-(1,26649)  1.97082304E-03                    1_GWF-(1,15108)
        118          3         18      0.14385534                    1_GWF-(1,11576)  2.43769572E-03                    1_GWF-(1,14936)
        119          3         19     -0.11733554                    1_GWF-(1,26586)  3.55446356E-03                    1_GWF-(1,14801)
        120          3         20     -0.12326896                    1_GWF-(1,22396)  4.55559055E-03                    1_GWF-(1,14799)
        121          3         21     -0.11845333                    1_GWF-(1,16803)  4.06388151E-03                    1_GWF-(1,14801)
        122          3         22     -0.11949164                    1_GWF-(1,11714)  3.40779031E-03                    1_GWF-(1,14799)
        123          3         23     -0.10843444                    1_GWF-(1,25444)  2.92573086E-03                    1_GWF-(1,15107)
        124          3         24     -0.10990861                    1_GWF-(1,25492)  2.48252720E-03                    1_GWF-(1,14801)
        125          3         25      0.17147050                    1_GWF-(1,26487)  2.21809668E-03                    1_GWF-(1,14801)
        126          3         26      0.20193709                    1_GWF-(1,26420)  1.78866883E-03                    1_GWF-(1,14801)
        127          3         27      0.21199484                    1_GWF-(1,26487)  2.15018371E-03                    1_GWF-(1,15109)
        128          3         28      0.14136841                    1_GWF-(1,26420)  2.84966591E-03                    1_GWF-(1,15107)
        129          3         29     -0.11925650                    1_GWF-(1,26543) -2.11847908E-03                    1_GWF-(1,15107)
        130          3         30     -0.16752863                    1_GWF-(1,26588)  1.74745296E-03                    1_GWF-(1,15107)
        131          3         31     -0.18991291                    1_GWF-(1,26543)  2.11246104E-03                    1_GWF-(1,14801)
        132          3         32     -0.16582075                    1_GWF-(1,26588)  2.18325374E-03                    1_GWF-(1,14799)
        133          3         33     -0.13822097                    1_GWF-(1,26543)  2.85869617E-03                    1_GWF-(1,15107)
        134          3         34     -0.14332967                    1_GWF-(1,26350) -3.18937988E-03                    1_GWF-(1,15107)
        135          3         35     -0.14606949                    1_GWF-(1,24856)  2.72257358E-03                    1_GWF-(1,15107)
        136          3         36      0.14751229                    1_GWF-(1,26622)  1.50622235E-03                    1_GWF-(1,10342)
        137          3         37      0.14388337                    1_GWF-(1,26623)  2.02024659E-03                    1_GWF-(1,14938)
        138          3         38      0.14869387                    1_GWF-(1,26622)  3.49695278E-03                    1_GWF-(1,15107)
        139          3         39      0.12857028                    1_GWF-(1,26649)  2.15063202E-03                    1_GWF-(1,14938)
        140          3         40     -0.13843264                    1_GWF-(1,26649)  2.15402284E-03                    1_GWF-(1,14801)
        141          3         41      0.15053552                    1_GWF-(1,26665)  2.39304515E-03                    1_GWF-(1,14801)
        142          3         42     -0.18179951                    1_GWF-(1,26665) -3.12264897E-03                    1_GWF-(1,15107)
        143          3         43     -0.12682575                    1_GWF-(1,26666)  3.36640098E-03                    1_GWF-(1,15107)
        144          3         44  9.75236637E-02                    1_GWF-(1,26540)  2.14101266E-03                    1_GWF-(1,14938)
        145          3         45      0.11083441                    1_GWF-(1,26587)  3.17453336E-03                    1_GWF-(1,15107)
        146          3         46      0.11232582                    1_GWF-(1,26648)  1.58781804E-03                    1_GWF-(1,14938)
        147          3         47      0.11963489                    1_GWF-(1,26649)  1.71459337E-03                    1_GWF-(1,15109)
        148          3         48     -0.10182945                    1_GWF-(1,26218)  2.11412254E-03                    1_GWF-(1,15108)
        149          3         49 -9.30232448E-02                    1_GWF-(1,26217)  2.53833152E-03                    1_GWF-(1,14801)
        150          3         50     -0.12604376                    1_GWF-(1,26649)  3.94229954E-03                    1_GWF-(1,15107)
        151          4          1  8.11138956E-02                    1_GWF-(1,26218)  2.72505269E-03                    1_GWF-(1,14938)
        152          4          2 -7.79014399E-02                    1_GWF-(1,26218)  3.19175823E-03                    1_GWF-(1,15107)
        153          4          3 -8.54042747E-02                    1_GWF-(1,26217) -2.25421992E-03                    1_GWF-(1,15107)
        154          4          4 -9.18178238E-02                    1_GWF-(1,26218)  2.32689812E-03                    1_GWF-(1,15107)
        155          4          5 -7.34318494E-02                    1_GWF-(1,26217)  1.30090003E-03                    1_GWF-(1,14938)
        156          4          6 -7.21455912E-02                    1_GWF-(1,26218)  8.57703667E-04                    1_GWF-(1,15107)
        157          4          7  7.76645217E-02                    1_GWF-(1,26665)  8.62277363E-04                    1_GWF-(1,10342)
        158          4          8  6.25332587E-02                    1_GWF-(1,26647)  1.13286939E-03                    1_GWF-(1,14801)
        159          4          9  8.49943424E-02                    1_GWF-(1,26665)  1.23485550E-03                    1_GWF-(1,14801)
        160          4         10 -8.75824767E-02                    1_GWF-(1,26665)  1.22432133E-03                    1_GWF-(1,14799)
        161          4         11  8.07506282E-02                    1_GWF-(1,26665)  7.65942934E-04                    1_GWF-(1,14801)
        162          4         12 -7.43660149E-02                    1_GWF-(1,26649)  1.23943207E-03                    1_GWF-(1,15107)
        163          4         13 -7.28992289E-02                    1_GWF-(1,26622)  1.17275725E-03                    1_GWF-(1,14938)
        164          4         14 -6.53234350E-02                    1_GWF-(1,26649)  1.06115176E-03                    1_GWF-(1,15107)
        165          4         15 -6.49231057E-02                    1_GWF-(1,26622)  7.29690379E-04                    1_GWF-(1,10342)
        166          4         16  6.64561887E-02                    1_GWF-(1,21411)  6.31027559E-04                    1_GWF-(1,15109)
        167          4         17  6.44117477E-02                    1_GWF-(1,21405)  1.09722002E-03                    1_GWF-(1,15107)
        168          4         18  5.63344392E-02                    1_GWF-(1,24704)  1.23173012E-03                    1_GWF-(1,14799)
        169          4         19  5.79498735E-02                    1_GWF-(1,26588)  1.31390292E-03                    1_GWF-(1,14801)
        170          4         20  5.59682688E-02                    1_GWF-(1,26543)  1.06747589E-03                    1_GWF-(1,14799)
        171          4         21  5.09777453E-02                    1_GWF-(1,26588)  7.36842804E-04                    1_GWF-(1,14801)
        172          4         22 -5.14383886E-02                    1_GWF-(1,26487)  1.22559380E-03                    1_GWF-(1,15107)
        173          4         23 -5.14628631E-02                    1_GWF-(1,26486)  1.22834346E-03                    1_GWF-(1,14938)
        174          4         24 -5.38665037E-02                    1_GWF-(1,26487)  1.28465572E-03                    1_GWF-(1,15107)
        175          4         25  5.24570400E-02                    1_GWF-(1,26487)  5.69877027E-04                    1_GWF-(1,14799)
        176          4         26  5.77408002E-02                    1_GWF-(1,26420)  7.25360741E-04                    1_GWF-(1,14938)
        177          4         27  4.29646327E-02                    1_GWF-(1,26487)  1.59201857E-03                    1_GWF-(1,15107)
        178          4         28  3.26124569E-02                    1_GWF-(1,26420) -1.35586999E-03                    1_GWF-(1,15107)
        179          4         29  3.88053500E-02                    1_GWF-(1,26543)  2.10155850E-03                    1_GWF-(1,15107)
        180          4         30  3.94890961E-02                    1_GWF-(1,26586) -1.49438612E-03                    1_GWF-(1,15107)
        181          4         31  4.01995579E-02                    1_GWF-(1,26623)  1.76660743E-03                    1_GWF-(1,15107)
        182          4         32  3.29370318E-02                    1_GWF-(1,26586) -1.47630414E-03                    1_GWF-(1,15107)
        183          4         33  2.38451807E-02                    1_GWF-(1,26623)  2.01292938E-03                    1_GWF-(1,15107)
        184          4         34  2.95494141E-02                    1_GWF-(1,26350)  1.03133920E-03                    1_GWF-(1,14938)
        185          4         35  3.54564076E-02                    1_GWF-(1,26422)  7.76511559E-04                    1_GWF-(1,15107)
        186          4         36 -3.41029230E-02                    1_GWF-(1,26422)  6.22516035E-04                    1_GWF-(1,14801)
        187          4         37 -4.36552689E-02                    1_GWF-(1,26350)  8.24073076E-04                    1_GWF-(1,14801)
        188          4         38 -4.78034622E-02                    1_GWF-(1,26422)  1.20035108E-03                    1_GWF-(1,15107)
        189          4         39 -5.04364493E-02                    1_GWF-(1,26350) -1.13789556E-03                    1_GWF-(1,15107)
        190          4         40 -5.38756743E-02                    1_GWF-(1,26422)  1.37380271E-03                    1_GWF-(1,15107)
        191          4         41 -4.20997003E-02                    1_GWF-(1,26350)  7.48676965E-04                    1_GWF-(1,15022)
        192          4         42 -3.05721741E-02                    1_GWF-(1,26422)  9.11304656E-04                    1_GWF-(1,15107)
        193          4         43 -2.19228160E-02                    1_GWF-(1,16545)  4.24613967E-04                    1_GWF-(1,15939)
        194          4         44 -2.63138602E-02                    1_GWF-(1,16538)  5.25274812E-04                    1_GWF-(1,15109)
        195          4         45 -2.79256170E-02                    1_GWF-(1,16237) -4.09757079E-04                    1_GWF-(1,15109)
        196          4         46 -2.42781615E-02                    1_GWF-(1,16230)  5.26224571E-04                    1_GWF-(1,14799)
        197          4         47  2.94977616E-02                    1_GWF-(1,16536)  6.30359264E-04                    1_GWF-(1,14801)
        198          4         48  3.57602854E-02                    1_GWF-(1,16192)  6.96935292E-04                    1_GWF-(1,14799)
        199          4         49  4.25016547E-02                    1_GWF-(1,16200)  9.95413855E-04                    1_GWF-(1,15107)
        200          4         50  3.54689682E-02                    1_GWF-(1,14464) -2.02536411E-03                    1_GWF-(1,15107)
        201          5          1 -5.32587515E-02                    1_GWF-(1,16203)  1.19330054E-03                    1_GWF-(1,15107)
        202          5          2 -3.09955772E-02                    1_GWF-(1,11421) -1.31665325E-03                    1_GWF-(1,15107)
        203          5          3 -2.88017364E-02                    1_GWF-(1,16236)  1.30698568E-03                    1_GWF-(1,15107)
        204          5          4 -2.66602124E-02                    1_GWF-(1,26422) -8.29908891E-04                    1_GWF-(1,15107)
        205          5          5 -2.56311261E-02                    1_GWF-(1,20233)  5.73448710E-04                    1_GWF-(1,15107)
        206          5          6 -2.10553457E-02                    1_GWF-(1,26486) -3.78941053E-04                    1_GWF-(1,15107)
        207          5          7 -1.68675472E-02                    1_GWF-(1,26543)  3.17580681E-04                    1_GWF-(1,14801)
        208          5          8 -1.41839793E-02                    1_GWF-(1,19052)  4.36789115E-04                    1_GWF-(1,14798)
        209          5          9  1.81462987E-02                    1_GWF-(1,26422)  3.83429972E-04                    1_GWF-(1,14938)
        210          5         10  1.97037037E-02                    1_GWF-(1,26350)  7.52761092E-04                    1_GWF-(1,15107)
        211          5         11  2.09748239E-02                    1_GWF-(1,26422) -6.57968753E-04                    1_GWF-(1,15107)
        212          5         12  2.11898925E-02                    1_GWF-(1,26350)  9.29082565E-04                    1_GWF-(1,15107)
        213          5         13  2.44585921E-02                    1_GWF-(1,26422)  5.72819102E-04                    1_GWF-(1,14938)
        214          5         14  2.30484132E-02                    1_GWF-(1,26544)  5.29936971E-04                    1_GWF-(1,15107)
        215          5         15  2.29261941E-02                    1_GWF-(1,26486)  4.02619781E-04                    1_GWF-(1,14798)
        216          5         16  1.88912927E-02                    1_GWF-(1,26649)  4.06318800E-04                    1_GWF-(1,14799)
        217          5         17  2.03699607E-02                    1_GWF-(1,26486)  7.06063437E-04                    1_GWF-(1,15107)
        218          5         18  1.51958110E-02                    1_GWF-(1,26487) -3.20586856E-04                    1_GWF-(1,15107)
        219          5         19 -1.77755899E-02                    1_GWF-(1,26588)  2.73807182E-04                    1_GWF-(1,14799)
        220          5         20 -1.49676411E-02                    1_GWF-(1,26586)  5.91043020E-04                    1_GWF-(1,15107)
        221          5         21 -1.76387733E-02                    1_GWF-(1,26623)  6.19238903E-04                    1_GWF-(1,14938)
        222          5         22 -1.58225019E-02                    1_GWF-(1,26586)  9.23567810E-04                    1_GWF-(1,15107)
        223          5         23 -1.33745047E-02                    1_GWF-(1,25279) -8.19398789E-04                    1_GWF-(1,15107)
        224          5         24 -1.14770387E-02                    1_GWF-(1,25380)  9.30616042E-04                    1_GWF-(1,15107)
        225          5         25 -1.24091673E-02                    1_GWF-(1,26218) -7.60831213E-04                    1_GWF-(1,15107)
        226          5         26 -1.56862981E-02                    1_GWF-(1,26487)  5.27333211E-04                    1_GWF-(1,15107)
        227          5         27  1.72388081E-02                    1_GWF-(1,26622)  3.50115743E-04                    1_GWF-(1,14801)
        228          5         28  1.50423002E-02                    1_GWF-(1,26649)  3.86980858E-04                    1_GWF-(1,14938)
        229          5         29 -1.20770998E-02                    1_GWF-(1,26649)  5.57819452E-04                    1_GWF-(1,15107)
        230          5         30 -1.29455477E-02                    1_GWF-(1,24960) -5.12905114E-04                    1_GWF-(1,15107)
        231          5         31 -1.35478423E-02                    1_GWF-(1,24956)  6.30676190E-04                    1_GWF-(1,15107)
        232          5         32 -1.50136456E-02                    1_GWF-(1,24665)  3.45502587E-04                    1_GWF-(1,14799)
        233          5         33 -1.70908506E-02                    1_GWF-(1,24702)  3.00555079E-04                    1_GWF-(1,15107)
        234          5         34 -1.66075735E-02                    1_GWF-(1,24701)  1.54156377E-04                    1_GWF-(1,14800)
        235          5         35  1.52613926E-02                    1_GWF-(1,26543) -2.27175665E-04                    1_GWF-(1,15107)
        236          5         36  1.83904527E-02                    1_GWF-(1,26588)  2.78286476E-04                    1_GWF-(1,15107)
        237          5         37 -1.58565696E-02                    1_GWF-(1,21423) -3.05883902E-04                    1_GWF-(1,15107)
        238          5         38 -1.50328296E-02                    1_GWF-(1,24313)  3.17034714E-04                    1_GWF-(1,15107)
        239          5         39 -1.25007826E-02                    1_GWF-(1,24315)  2.01107858E-04                    1_GWF-(1,14798)
        240          5         40 -1.59837894E-02                    1_GWF-(1,26665) -2.16608658E-04                    1_GWF-(1,15107)
        241          5         41 -1.45241202E-02                    1_GWF-(1,26666)  2.68161020E-04                    1_GWF-(1,15107)
        242          5         42 -1.46993215E-02                    1_GWF-(1,26665)  2.87075406E-04                    1_GWF-(1,14801)
        243          5         43 -1.06756690E-02                    1_GWF-(1,26666)  2.22166162E-04                    1_GWF-(1,14799)
        244          5         44  1.02825290E-02                    1_GWF-(1,26217)  1.68512649E-04                    1_GWF-(1,11460)
        245          5         45  1.20295601E-02                    1_GWF-(1,26218) -2.01985959E-04                    1_GWF-(1,15107)
        246          5         46  9.83290458E-03                    1_GWF-(1,26217)  4.04837851E-04                    1_GWF-(1,15107)
        247          5         47 -1.06781418E-02                    1_GWF-(1,26217) -3.70623995E-04                    1_GWF-(1,15107)
        248          5         48 -1.09500987E-02                    1_GWF-(1,26218)  4.74337467E-04                    1_GWF-(1,15107)
        249          5         49  9.80368135E-03                    1_GWF-(1,26218) -3.14455519E-04                    1_GWF-(1,15107)
        250          5         50  9.89589461E-03                    1_GWF-(1,26217)  3.92980068E-04                    1_GWF-(1,15107)
        251          6          1  8.76462954E-03                    1_GWF-(1,11456) -6.94918987E-04                    1_GWF-(1,11459)
        252          6          2  7.29752041E-03                    1_GWF-(1,26217)  4.97944270E-04                    1_GWF-(1,15107)
        253          6          3  1.30240281E-02                    1_GWF-(1,26218)  6.91620114E-04                    1_GWF-(1,11459)
        254          6          4 -1.03310734E-02                    1_GWF-(1,26218) -4.06529188E-04                    1_GWF-(1,11459)
        255          6          5  8.75911692E-03                    1_GWF-(1,21677)  1.19355202E-04                    1_GWF-(1,14938)
        256          6          6  9.81189190E-03                    1_GWF-(1,11456)  2.13139923E-04                    1_GWF-(1,11459)
        257          6          7  7.77617008E-03                    1_GWF-(1,21671) -2.42731478E-04                    1_GWF-(1,11459)
        258          6          8  7.61943767E-03                    1_GWF-(1,21709)  1.33972761E-04                    1_GWF-(1,14799)
        259          6          9  1.04945044E-02                    1_GWF-(1,11456)  2.15607108E-04                    1_GWF-(1,15107)
        260          6         10  9.57954903E-03                    1_GWF-(1,26666) -1.57185947E-04                    1_GWF-(1,15107)
        261          6         11  9.86890449E-03                    1_GWF-(1,26665)  1.00681524E-04                    1_GWF-(1,14798)
        262          6         12  1.13420414E-02                    1_GWF-(1,11456)  1.98389663E-04                    1_GWF-(1,15107)
        263          6         13  8.58477166E-03                    1_GWF-(1,24313) -1.94555569E-04                    1_GWF-(1,15107)
        264          6         14  8.36296306E-03                    1_GWF-(1,21421)  2.00265806E-04                    1_GWF-(1,15107)
        265          6         15  1.19892242E-02                    1_GWF-(1,11456) -1.27213085E-04                    1_GWF-(1,15107)
        266          6         16  7.13540029E-03                    1_GWF-(1,21413)  9.37147582E-05                    1_GWF-(1,15107)
        267          6         17 -8.09735257E-03                    1_GWF-(1,11456)  1.47891393E-04                    1_GWF-(1,15107)
        268          6         18  1.27672910E-02                    1_GWF-(1,11456)  1.72351480E-04                    1_GWF-(1,14799)
        269          6         19  6.10668490E-03                    1_GWF-(1,24678)  2.99583013E-04                    1_GWF-(1,15107)
        270          6         20 -6.73589460E-03                    1_GWF-(1,11456) -2.18757515E-04                    1_GWF-(1,15107)
        271          6         21  1.24971836E-02                    1_GWF-(1,11456)  2.23724219E-04                    1_GWF-(1,15107)
        272          6         22 -7.71469129E-03                    1_GWF-(1,11456) -1.57491595E-04                    1_GWF-(1,15107)
        273          6         23 -5.15971787E-03                    1_GWF-(1,26649)  1.28060227E-04                    1_GWF-(1,15107)
        274          6         24  8.80116740E-03                    1_GWF-(1,11456)  1.50439616E-04                    1_GWF-(1,15107)
        275          6         25  6.07278224E-03                    1_GWF-(1,26487) -2.22582274E-04                    1_GWF-(1,15107)
        276          6         26 -8.07899223E-03                    1_GWF-(1,11456)  2.70261794E-04                    1_GWF-(1,15107)
        277          6         27  1.14425822E-02                    1_GWF-(1,11456) -2.14979558E-04                    1_GWF-(1,15107)
        278          6         28 -6.09077739E-03                    1_GWF-(1,11456)  2.82791116E-04                    1_GWF-(1,15107)
        279          6         29  4.11018138E-03                    1_GWF-(1,26586)  1.59243557E-04                    1_GWF-(1,14938)
        280          6         30  9.64280140E-03                    1_GWF-(1,11456)  1.61700184E-04                    1_GWF-(1,15107)
        281          6         31 -7.89533164E-03                    1_GWF-(1,11456)  7.48665918E-05                    1_GWF-(1,14799)
        282          6         32  4.04510629E-03                    1_GWF-(1,26486)  9.38189673E-05                    1_GWF-(1,14801)
        283          6         33  6.79377615E-03                    1_GWF-(1,11456)  1.25062217E-04                    1_GWF-(1,15107)
        284          6         34 -4.83700209E-03                    1_GWF-(1,11456)  8.05705834E-05                    1_GWF-(1,14799)
        285          6         35 -5.51190520E-03                    1_GWF-(1,26622)  7.17375165E-05                    1_GWF-(1,14801)
        286          6         36  6.89733189E-03                    1_GWF-(1,11456)  9.71907404E-05                    1_GWF-(1,14801)
        287          6         37 -4.62229527E-03                    1_GWF-(1,26586)  9.82519819E-05                    1_GWF-(1,14938)
        288          6         38 -5.31661624E-03                    1_GWF-(1,26422)  1.84298790E-04                    1_GWF-(1,15107)
        289          6         39  6.86592346E-03                    1_GWF-(1,11456) -1.12687437E-04                    1_GWF-(1,15107)
        290          6         40 -4.61188219E-03                    1_GWF-(1,26422)  1.25070585E-04                    1_GWF-(1,15107)
        291          6         41 -4.17808826E-03                    1_GWF-(1,26350) -5.54557887E-05                    1_GWF-(1,11455)
        292          6         42  5.06515697E-03                    1_GWF-(1,11456)  7.07437893E-05                    1_GWF-(1,14801)
        293          6         43 -4.83790139E-03                    1_GWF-(1,11456)  8.87293023E-05                    1_GWF-(1,11455)
        294          6         44 -2.40442570E-03                    1_GWF-(1,16540) -9.83363608E-05                    1_GWF-(1,11455)
        295          6         45  2.94129966E-03                    1_GWF-(1,11456)  1.01343378E-04                    1_GWF-(1,15107)
        296          6         46 -4.70598708E-03                    1_GWF-(1,11456) -1.45101626E-04                    1_GWF-(1,15107)
        297          6         47  3.69028500E-03                    1_GWF-(1,16538)  1.66592282E-04                    1_GWF-(1,15107)
        298          6         48  3.94029216E-03                    1_GWF-(1,16194) -1.48078095E-04                    1_GWF-(1,15107)
        299          6         49  3.95891492E-03                    1_GWF-(1,16113)  1.77918007E-04                    1_GWF-(1,15107)
        300          6         50  4.66383251E-03                    1_GWF-(1,11456) -2.13661566E-04                    1_GWF-(1,11455)
        301          7          1 -8.81049561E-03                    1_GWF-(1,11456) -1.01803077E-04                    1_GWF-(1,11456)
        302          7          2 -3.88418013E-03                    1_GWF-(1,16232) -1.58496791E-04                    1_GWF-(1,15107)
        303          7          3 -3.12155976E-03                    1_GWF-(1,16236)  1.96462053E-04                    1_GWF-(1,15107)
        304          7          4 -3.30056454E-03                    1_GWF-(1,16580) -9.68404089E-05                    1_GWF-(1,15107)
        305          7          5 -4.29925457E-03                    1_GWF-(1,11455)  5.69241458E-05                    1_GWF-(1,15107)
        306          7          6  5.73337550E-03                    1_GWF-(1,11455) -4.38702606E-05                    1_GWF-(1,15107)
        307          7          7  3.74272519E-03                    1_GWF-(1,11380) -3.64516412E-05                    1_GWF-(1,11456)
        308          7          8 -2.02655577E-03                    1_GWF-(1,19052)  5.14107498E-05                    1_GWF-(1,14801)
        309          7          9  4.10743810E-03                    1_GWF-(1,11455)  4.76699685E-05                    1_GWF-(1,14938)
        310          7         10 -4.65605107E-03                    1_GWF-(1,11455)  9.79113896E-05                    1_GWF-(1,15107)
        311          7         11 -4.10177597E-03                    1_GWF-(1,11380)  7.77478970E-05                    1_GWF-(1,14938)
        312          7         12  2.62033039E-03                    1_GWF-(1,26350)  1.06671684E-04                    1_GWF-(1,15107)
        313          7         13  3.15982223E-03                    1_GWF-(1,26422) -6.53328935E-05                    1_GWF-(1,15107)
        314          7         14 -3.45269627E-03                    1_GWF-(1,11380)  5.47726952E-05                    1_GWF-(1,15107)
        315          7         15  3.13008111E-03                    1_GWF-(1,26623)  4.75208624E-05                    1_GWF-(1,14798)
        316          7         16  2.63923678E-03                    1_GWF-(1,26622) -5.33005454E-05                    1_GWF-(1,15107)
        317          7         17  2.16263627E-03                    1_GWF-(1,26623)  5.85184617E-05                    1_GWF-(1,15107)
        318          7         18  2.19087613E-03                    1_GWF-(1,26486)  3.52838606E-05                    1_GWF-(1,14801)
        319          7         19 -2.10842706E-03                    1_GWF-(1,26486) -3.74601740E-05                    1_GWF-(1,15107)
        320          7         20 -2.29484314E-03                    1_GWF-(1,11380)  6.46999042E-05                    1_GWF-(1,15107)
        321          7         21 -1.96044471E-03                    1_GWF-(1,26486)  7.06639911E-05                    1_GWF-(1,14938)
        322          7         22 -1.84399114E-03                    1_GWF-(1,25292)  1.26108299E-04                    1_GWF-(1,15107)
        323          7         23 -1.82578474E-03                    1_GWF-(1,26486) -8.05216697E-05                    1_GWF-(1,15107)
        324          7         24 -1.77417922E-03                    1_GWF-(1,26487)  6.69938298E-05                    1_GWF-(1,15107)
        325          7         25 -2.51997749E-03                    1_GWF-(1,26420)  2.92845121E-05                    1_GWF-(1,14801)
        326          7         26 -2.83171574E-03                    1_GWF-(1,26487) -3.40195064E-05                    1_GWF-(1,15107)
        327          7         27 -2.26434739E-03                    1_GWF-(1,26420)  8.98700140E-05                    1_GWF-(1,15107)
        328          7         28 -1.49094271E-03                    1_GWF-(1,25116) -6.11077819E-05                    1_GWF-(1,15107)
        329          7         29 -1.56856615E-03                    1_GWF-(1,24429)  5.14490929E-05                    1_GWF-(1,15107)
        330          7         30 -1.63901916E-03                    1_GWF-(1,24961)  2.54684888E-05                    1_GWF-(1,14801)
        331          7         31 -1.85122087E-03                    1_GWF-(1,26649)  3.67244615E-05                    1_GWF-(1,14801)
        332          7         32 -1.66222085E-03                    1_GWF-(1,24678)  7.16643538E-05                    1_GWF-(1,15107)
        333          7         33 -2.01100910E-03                    1_GWF-(1,24680) -5.70334208E-05                    1_GWF-(1,15107)
        334          7         34 -2.06522399E-03                    1_GWF-(1,24701)  7.29018411E-05                    1_GWF-(1,15107)
        335          7         35 -1.77004114E-03                    1_GWF-(1,24689)  3.72663805E-05                    1_GWF-(1,15022)
        336          7         36 -1.83537646E-03                    1_GWF-(1,21424)  3.67422956E-05                    1_GWF-(1,15107)
        337          7         37 -1.81116980E-03                    1_GWF-(1,21420) -2.86265994E-05                    1_GWF-(1,15107)
        338          7         38 -1.80162931E-03                    1_GWF-(1,24313)  2.49404083E-05                    1_GWF-(1,15107)
        339          7         39 -1.52276941E-03                    1_GWF-(1,24313)  2.64853156E-05                    1_GWF-(1,11459)
        340          7         40 -1.74691892E-03                    1_GWF-(1,26665) -3.35189562E-05                    1_GWF-(1,15107)
        341          7         41 -1.74098338E-03                    1_GWF-(1,26666)  2.65789219E-05                    1_GWF-(1,15107)
        342          7         42 -1.76479020E-03                    1_GWF-(1,26665)  2.98679131E-05                    1_GWF-(1,11459)
        343          7         43 -1.32953052E-03                    1_GWF-(1,26666) -2.82672258E-05                    1_GWF-(1,11459)
        344          7         44  1.18680860E-03                    1_GWF-(1,26217)  1.88594909E-05                    1_GWF-(1,15107)
        345          7         45  1.48477677E-03                    1_GWF-(1,26218)  2.83666987E-05                    1_GWF-(1,11459)
        346          7         46  1.30552485E-03                    1_GWF-(1,26217)  5.18653524E-05                    1_GWF-(1,15107)
        347          7         47  1.38408273E-03                    1_GWF-(1,26218) -5.03439935E-05                    1_GWF-(1,15107)
        348          7         48 -1.38501551E-03                    1_GWF-(1,26218)  6.24560283E-05                    1_GWF-(1,15107)
        349          7         49 -1.17460884E-03                    1_GWF-(1,26217) -3.85709017E-05                    1_GWF-(1,15107)
        350          7         50  1.21941033E-03                    1_GWF-(1,26217)  4.47066454E-05                    1_GWF-(1,15107)
        351          8          1 -4.59759069E-03                    1_GWF-(1,11460) -4.44622802E-05                    1_GWF-(1,11455)
        352          8          2 -2.73244501E-03                    1_GWF-(1,11439)  5.85351600E-05                    1_GWF-(1,15107)
        353          8          3  1.91638894E-03                    1_GWF-(1,11439) -4.73916540E-05                    1_GWF-(1,15107)
        354          8          4  1.99534081E-03                    1_GWF-(1,11460)  2.88454921E-05                    1_GWF-(1,15107)
        355          8          5 -3.10812741E-03                    1_GWF-(1,11439)  1.47847115E-05                    1_GWF-(1,14938)
        356          8          6  2.68106348E-03                    1_GWF-(1,11380)  1.65146995E-05                    1_GWF-(1,11455)
        357          8          7  2.58648872E-03                    1_GWF-(1,11460) -1.60347782E-05                    1_GWF-(1,11455)
        358          8          8 -1.74104593E-03                    1_GWF-(1,11460)  1.54994430E-05                    1_GWF-(1,14801)
        359          8          9  2.51465739E-03                    1_GWF-(1,11380)  2.38319890E-05                    1_GWF-(1,15107)
        360          8         10  1.72649776E-03                    1_GWF-(1,11460) -1.97893561E-05                    1_GWF-(1,15107)
        361          8         11 -1.52624052E-03                    1_GWF-(1,11380)  7.41726999E-06                    1_GWF-(1,14798)
        362          8         12  2.26973145E-03                    1_GWF-(1,11380)  1.57195297E-05                    1_GWF-(1,15107)
        363          8         13  1.64376398E-03                    1_GWF-(1,11460) -1.96087458E-05                    1_GWF-(1,15107)
        364          8         14 -1.58456211E-03                    1_GWF-(1,11460)  2.54490347E-05                    1_GWF-(1,15107)
        365          8         15  1.83098599E-03                    1_GWF-(1,11380) -1.88600160E-05                    1_GWF-(1,15107)
        366          8         16  9.19307969E-04                    1_GWF-(1,11460)  1.98356548E-05                    1_GWF-(1,15107)
        367          8         17 -9.75348157E-04                    1_GWF-(1,11380)  1.31323021E-05                    1_GWF-(1,15107)
        368          8         18  1.04002253E-03                    1_GWF-(1,11380)  1.91703764E-05                    1_GWF-(1,14799)
        369          8         19  1.06614402E-03                    1_GWF-(1,11460)  3.73968722E-05                    1_GWF-(1,15107)
        370          8         20 -9.57364290E-04                    1_GWF-(1,11460) -2.55017757E-05                    1_GWF-(1,15107)
        371          8         21  1.01880236E-03                    1_GWF-(1,11380)  2.62073547E-05                    1_GWF-(1,15107)
        372          8         22  7.73637664E-04                    1_GWF-(1,11460) -2.55938914E-05                    1_GWF-(1,15107)
        373          8         23 -8.00928078E-04                    1_GWF-(1,11460)  2.88421938E-05                    1_GWF-(1,15107)
        374          8         24  7.56150156E-04                    1_GWF-(1,11380)  1.02198255E-05                    1_GWF-(1,14799)
        375          8         25 -8.00268468E-04                    1_GWF-(1,26588) -1.16031145E-05                    1_GWF-(1,15107)
        376          8         26  6.00727082E-04                    1_GWF-(1,26588)  2.34908994E-05                    1_GWF-(1,15107)
        377          8         27  7.48630654E-04                    1_GWF-(1,11380) -2.29058462E-05                    1_GWF-(1,15107)
        378          8         28  5.84344648E-04                    1_GWF-(1,11460)  3.31423502E-05                    1_GWF-(1,15107)
        379          8         29  6.84149746E-04                    1_GWF-(1,26649)  1.63067017E-05                    1_GWF-(1,14938)
        380          8         30  6.70973978E-04                    1_GWF-(1,26622)  8.71864870E-06                    1_GWF-(1,10342)
        381          8         31  6.54328560E-04                    1_GWF-(1,26649)  1.20910227E-05                    1_GWF-(1,15107)
        382          8         32  6.00317072E-04                    1_GWF-(1,26487) -1.53751735E-05                    1_GWF-(1,15107)
        383          8         33 -4.52701033E-04                    1_GWF-(1,15167)  1.49697488E-05                    1_GWF-(1,15107)
        384          8         34 -5.32855330E-04                    1_GWF-(1,26486) -8.11315658E-06                    1_GWF-(1,15107)
        385          8         35 -4.85258897E-04                    1_GWF-(1,26544)  1.08198034E-05                    1_GWF-(1,14801)
        386          8         36 -5.70764107E-04                    1_GWF-(1,26486)  1.23224550E-05                    1_GWF-(1,14801)
        387          8         37 -5.75194841E-04                    1_GWF-(1,26350) -1.15496593E-05                    1_GWF-(1,15107)
        388          8         38 -6.73204237E-04                    1_GWF-(1,26422)  2.04522203E-05                    1_GWF-(1,15107)
        389          8         39 -6.03672596E-04                    1_GWF-(1,26350)  1.51826001E-05                    1_GWF-(1,14938)
        390          8         40 -5.66962706E-04                    1_GWF-(1,26422)  1.43521567E-05                    1_GWF-(1,15107)
        391          8         41 -4.93557934E-04                    1_GWF-(1,26350)  7.15425044E-06                    1_GWF-(1,15022)
        392          8         42 -4.83838417E-04                    1_GWF-(1,11466)  9.23423141E-06                    1_GWF-(1,15107)
        393          8         43  3.81257832E-04                    1_GWF-(1,11466)  8.64008461E-06                    1_GWF-(1,14801)
        394          8         44 -4.62758687E-04                    1_GWF-(1,11460) -9.79331008E-06                    1_GWF-(1,15107)
        395          8         45  3.47196049E-04                    1_GWF-(1,26486)  1.33075309E-05                    1_GWF-(1,15107)
        396          8         46  3.69175339E-04                    1_GWF-(1,26350) -1.49271062E-05                    1_GWF-(1,15107)
        397          8         47  4.51209803E-04                    1_GWF-(1,16538)  1.91727612E-05                    1_GWF-(1,15107)
        398          8         48  4.65951994E-04                    1_GWF-(1,16237) -1.81974179E-05                    1_GWF-(1,15107)
        399          8         49  4.48651081E-04                    1_GWF-(1,16230)  2.17400628E-05                    1_GWF-(1,15107)
        400          8         50 -4.19604113E-04                    1_GWF-(1,11466) -2.35420658E-05                    1_GWF-(1,15107)
        401          9          1  4.65696591E-04                    1_GWF-(1,11460)  2.05176627E-05                    1_GWF-(1,15107)
        402          9          2 -4.35993387E-04                    1_GWF-(1,16230)  1.38987016E-05                    1_GWF-(1,14938)
        403          9          3 -4.48935744E-04                    1_GWF-(1,16236)  1.32094771E-05                    1_GWF-(1,15107)
        404          9          4  3.75547712E-04                    1_GWF-(1,11460)  1.08531279E-05                    1_GWF-(1,14799)
        405          9          5 -3.51967734E-04                    1_GWF-(1,20233)  8.46051748E-06                    1_GWF-(1,15107)
        406          9          6 -3.11079054E-04                    1_GWF-(1,20228)  5.86259812E-06                    1_GWF-(1,14802)
        407          9          7  3.43079882E-04                    1_GWF-(1,11460)  7.85245450E-06                    1_GWF-(1,14799)
        408          9          8 -3.48366421E-04                    1_GWF-(1,26588)  8.61499080E-06                    1_GWF-(1,15107)
        409          9          9 -3.85549199E-04                    1_GWF-(1,26622)  3.99631003E-06                    1_GWF-(1,14938)
        410          9         10 -3.27292849E-04                    1_GWF-(1,26623)  3.85279646E-06                    1_GWF-(1,14802)
        411          9         11  2.68223386E-04                    1_GWF-(1,26487)  7.70647323E-06                    1_GWF-(1,15107)
        412          9         12  3.00162806E-04                    1_GWF-(1,26486)  7.49534586E-06                    1_GWF-(1,14938)
        413          9         13  2.89107309E-04                    1_GWF-(1,26544)  1.07741669E-05                    1_GWF-(1,15107)
        414          9         14  2.99099222E-04                    1_GWF-(1,26422)  9.07197972E-06                    1_GWF-(1,14938)
        415          9         15  2.74963892E-04                    1_GWF-(1,26350)  1.21989725E-05                    1_GWF-(1,15107)
        416          9         16 -2.99987528E-04                    1_GWF-(1,26350) -7.47276228E-06                    1_GWF-(1,15107)
        417          9         17 -2.88722439E-04                    1_GWF-(1,26422)  5.88647481E-06                    1_GWF-(1,14801)
        418          9         18  2.57830423E-04                    1_GWF-(1,26422)  5.06731930E-06                    1_GWF-(1,14798)
        419          9         19 -2.15402900E-04                     1_GWF-(1,8023) -7.06538361E-06                    1_GWF-(1,15107)
        420          9         20 -3.28749490E-04                    1_GWF-(1,26649)  8.54137281E-06                    1_GWF-(1,15107)
        421          9         21 -3.36902078E-04                    1_GWF-(1,26622)  7.04309582E-06                    1_GWF-(1,14938)
        422          9         22 -3.33888221E-04                    1_GWF-(1,26649)  4.14213854E-06                    1_GWF-(1,15107)
        423          9         23 -2.83007313E-04                    1_GWF-(1,26544)  6.99944474E-06                    1_GWF-(1,15107)
        424          9         24 -2.79560384E-04                    1_GWF-(1,26486) -7.89962951E-06                    1_GWF-(1,15107)
        425          9         25  1.94322680E-04                    1_GWF-(1,11460)  1.04921303E-05                    1_GWF-(1,15107)
        426          9         26  2.45961903E-04                     1_GWF-(1,8339) -7.98390003E-06                    1_GWF-(1,15107)
        427          9         27  2.04750941E-04                    1_GWF-(1,26588)  7.95763251E-06                    1_GWF-(1,15107)
        428          9         28  1.98164386E-04                    1_GWF-(1,11460)  5.69792487E-06                    1_GWF-(1,14799)
        429          9         29  2.16845502E-04                    1_GWF-(1,26420) -5.09897113E-06                    1_GWF-(1,15107)
        430          9         30 -2.09256659E-04                    1_GWF-(1,24961)  6.88701703E-06                    1_GWF-(1,15107)
        431          9         31  2.31593916E-04                    1_GWF-(1,11460)  6.53614193E-06                    1_GWF-(1,14938)
        432          9         32 -2.14386250E-04                    1_GWF-(1,24678)  8.78638979E-06                    1_GWF-(1,15107)
        433          9         33 -2.41106313E-04                    1_GWF-(1,24678)  3.59764501E-06                    1_GWF-(1,14796)
        434          9         34  2.61754068E-04                    1_GWF-(1,26665)  3.65536201E-06                    1_GWF-(1,14801)
        435          9         35 -2.74337244E-04                    1_GWF-(1,26665)  7.11549164E-06                    1_GWF-(1,15107)
        436          9         36  2.22238267E-04                    1_GWF-(1,26665) -6.56941175E-06                    1_GWF-(1,15107)
        437          9         37  2.72245082E-04                    1_GWF-(1,11460)  7.00096523E-06                    1_GWF-(1,15107)
        438          9         38 -2.23499717E-04                    1_GWF-(1,24313) -5.34793518E-06                    1_GWF-(1,15107)
        439          9         39 -1.95931723E-04                    1_GWF-(1,24586)  6.20149941E-06                    1_GWF-(1,15107)
        440          9         40  2.42846477E-04                    1_GWF-(1,11460) -5.17458404E-06                    1_GWF-(1,15107)
        441          9         41 -2.59641240E-04                    1_GWF-(1,11460)  3.14953169E-06                    1_GWF-(1,14799)
        442          9         42 -2.20396232E-04                    1_GWF-(1,11439)  2.61047738E-06                    1_GWF-(1,14798)
        443          9         43 -1.78871400E-04                     1_GWF-(1,8445)  2.47738655E-06                    1_GWF-(1,14801)
        444          9         44 -1.88338504E-04                    1_GWF-(1,11460)  4.08158748E-06                    1_GWF-(1,15107)
        445          9         45 -2.91952672E-04                    1_GWF-(1,11439)  3.38203108E-06                    1_GWF-(1,14938)
        446          9         46  3.26973534E-04                    1_GWF-(1,11439)  6.22958185E-06                    1_GWF-(1,15107)
        447          9         47  1.97577434E-04                    1_GWF-(1,15167) -6.46844687E-06                    1_GWF-(1,15107)
        448          9         48 -2.01304726E-04                    1_GWF-(1,11380)  8.01110986E-06                    1_GWF-(1,15107)
        449          9         49  1.70130176E-04                    1_GWF-(1,11439)  3.26167019E-06                    1_GWF-(1,14938)
        450          9         50  3.27684711E-04                    1_GWF-(1,11460)  4.31164825E-06                    1_GWF-(1,15107)
        451         10          1 -3.21579127E-04                    1_GWF-(1,11460) -2.56141655E-06                    1_GWF-(1,15107)
        452         10          2 -2.06799999E-04                    1_GWF-(1,11439)  5.26501229E-06                    1_GWF-(1,15107)
        453         10          3  1.64849964E-04                    1_GWF-(1,11439) -3.74443439E-06                    1_GWF-(1,15107)
        454         10          4 -1.88706457E-04                    1_GWF-(1,15167)  3.57105055E-06                    1_GWF-(1,15107)
        455         10          5 -2.54392500E-04                    1_GWF-(1,11439)  1.94054257E-06                    1_GWF-(1,14802)
        456         10          6  1.87644888E-04                    1_GWF-(1,11439)  1.39580711E-06                    1_GWF-(1,11455)
        457         10          7 -1.55227187E-04                    1_GWF-(1,26486)  1.89001033E-06                    1_GWF-(1,14798)
        458         10          8  1.63514509E-04                    1_GWF-(1,26486)  1.70985894E-06                    1_GWF-(1,14802)
        459         10          9  1.40144322E-04                    1_GWF-(1,26487)  2.03832037E-06                    1_GWF-(1,14802)
        460         10         10  1.46932677E-04                    1_GWF-(1,20578)  2.06936114E-06                    1_GWF-(1,14801)
        461         10         11  1.21254666E-04                    1_GWF-(1,20234) -1.85917506E-06                    1_GWF-(1,15107)
        462         10         12  1.23627614E-04                    1_GWF-(1,24311)  3.34519541E-06                    1_GWF-(1,15107)
[...]
        568         12         18  1.37052452E-05                    1_GWF-(1,24703)  3.33223911E-07                    1_GWF-(1,14796)
        569         12         19  1.20015000E-05                    1_GWF-(1,24678)  3.79790366E-07                    1_GWF-(1,14801)
        570         12         20 -1.23520548E-05                    1_GWF-(1,26588)  2.79708694E-07                    1_GWF-(1,14801)
        571         12         21  1.30275939E-05                    1_GWF-(1,26588)  2.34398097E-07                    1_GWF-(1,14802)
        572         12         22  1.00753316E-05                    1_GWF-(1,24961)  2.30469030E-07                    1_GWF-(1,15107)
        573         12         23  9.32317378E-06                    1_GWF-(1,25114)  2.92966125E-07                    1_GWF-(1,14801)
        574         12         24 -1.01315269E-05                     1_GWF-(1,8452)  4.05994321E-07                    1_GWF-(1,15107)
        575         12         25 -1.24379091E-05                     1_GWF-(1,8339)  2.18598517E-07                    1_GWF-(1,14938)
        576         12         26 -1.22868048E-05                    1_GWF-(1,26666)  2.49228019E-07                    1_GWF-(1,14801)
        577         12         27 -1.36829340E-05                    1_GWF-(1,26665)  1.97922463E-07                    1_GWF-(1,15107)
        578         12         28  1.24560036E-05                    1_GWF-(1,26665)  2.72648238E-07                    1_GWF-(1,14938)
        579         12         29  9.28954313E-06                    1_GWF-(1,26666)  4.33141539E-07                    1_GWF-(1,15107)
        580         12         30  8.80705798E-06                    1_GWF-(1,26665) -2.94906803E-07                    1_GWF-(1,15107)
        581         12         31 -8.36473617E-06                    1_GWF-(1,11380)  2.47473821E-07                    1_GWF-(1,15107)
        582         12         32  9.07754412E-06                    1_GWF-(1,26649)  1.96199644E-07                    1_GWF-(1,14801)
        583         12         33 -1.00888171E-05                    1_GWF-(1,26649)  2.11836826E-07                    1_GWF-(1,14801)
        584         12         34 -1.03733059E-05                    1_GWF-(1,26622)  2.86549470E-07                    1_GWF-(1,15107)
        585         12         35 -8.55319687E-06                    1_GWF-(1,26623) -2.87149735E-07                    1_GWF-(1,15107)
        586         12         36 -8.14254463E-06                    1_GWF-(1,26622)  3.39444072E-07                    1_GWF-(1,15107)
        587         12         37 -8.63339950E-06                    1_GWF-(1,11380) -1.73119590E-07                    1_GWF-(1,15107)
        588         12         38  7.69713014E-06                    1_GWF-(1,11380)  1.96471324E-07                    1_GWF-(1,15107)
        589         12         39 -7.87459162E-06                    1_GWF-(1,26544)  1.41417469E-07                    1_GWF-(1,14801)
        590         12         40 -1.07769929E-05                    1_GWF-(1,26486)  1.08143603E-07                    1_GWF-(1,14802)
        591         12         41 -9.05452039E-06                    1_GWF-(1,26487)  1.10363053E-07                    1_GWF-(1,14824)
        592         12         42  7.20723165E-06                    1_GWF-(1,26588)  1.53629364E-07                    1_GWF-(1,14801)
        593         12         43 -7.46650239E-06                    1_GWF-(1,11380)  1.58234418E-07                    1_GWF-(1,14801)
        594         12         44  6.54045638E-06                    1_GWF-(1,26588)  1.20103516E-07                    1_GWF-(1,14823)
        595         12         45  8.09528673E-06                    1_GWF-(1,26350)  1.21690815E-07                    1_GWF-(1,14826)
        596         12         46  1.05851357E-05                    1_GWF-(1,26422)  1.76070717E-07                    1_GWF-(1,15107)
        597         12         47  1.10781209E-05                    1_GWF-(1,26350)  1.79501198E-07                    1_GWF-(1,14799)
        598         12         48  1.05849927E-05                    1_GWF-(1,26422)  1.57670961E-07                    1_GWF-(1,15107)
        599         12         49  8.06152928E-06                    1_GWF-(1,26350)  1.14246612E-07                    1_GWF-(1,14938)
        600         12         50  6.96101156E-06                    1_GWF-(1,16113) -1.08653986E-07                    1_GWF-(1,11455)
        601         13          1 -6.08789220E-06                    1_GWF-(1,16113)  1.43737173E-07                    1_GWF-(1,11455)
        602         13          2 -7.48670634E-06                    1_GWF-(1,26350)  8.51251812E-08                    1_GWF-(1,14801)
        603         13          3 -8.04711482E-06                    1_GWF-(1,26422)  1.51297304E-07                    1_GWF-(1,14798)
        604         13          4 -7.75113855E-06                    1_GWF-(1,26350)  1.42143723E-07                    1_GWF-(1,11455)
        605         13          5 -8.22371903E-06                    1_GWF-(1,26486)  1.07329759E-07                    1_GWF-(1,14845)
        606         13          6 -6.51124026E-06                    1_GWF-(1,26487) -1.21867513E-07                    1_GWF-(1,11455)
        607         13          7 -7.90964871E-06                    1_GWF-(1,26588)  1.33487412E-07                    1_GWF-(1,14801)
        608         13          8 -5.04639884E-06                    1_GWF-(1,26543)  1.62129074E-07                    1_GWF-(1,14801)
        609         13          9  5.70192128E-06                    1_GWF-(1,26422) -1.38563791E-07                    1_GWF-(1,11455)
        610         13         10  6.64031336E-06                    1_GWF-(1,26420)  1.13490974E-07                    1_GWF-(1,11455)
        611         13         11  5.26085049E-06                    1_GWF-(1,26422)  1.31980780E-07                    1_GWF-(1,14801)
        612         13         12  5.39403757E-06                    1_GWF-(1,26623) -1.21433042E-07                    1_GWF-(1,11455)
        613         13         13  6.59279076E-06                    1_GWF-(1,26622)  1.02443452E-07                    1_GWF-(1,14802)
        614         13         14  6.30074270E-06                    1_GWF-(1,26649)  1.37527008E-07                    1_GWF-(1,14801)
        615         13         15  5.20669954E-06                    1_GWF-(1,26622)  1.29834215E-07                    1_GWF-(1,14801)
        616         13         16  5.03547744E-06                    1_GWF-(1,26649)  1.17567794E-07                    1_GWF-(1,14796)
        617         13         17 -3.94978494E-06                    1_GWF-(1,20227)  1.01279526E-07                    1_GWF-(1,14801)
        618         13         18 -3.63675505E-06                     1_GWF-(1,8092)  1.46145871E-07                    1_GWF-(1,14801)
        619         13         19 -3.88159058E-06                    1_GWF-(1,11380)  8.94750311E-08                    1_GWF-(1,11455)
        620         13         20 -5.05783131E-06                    1_GWF-(1,26543)  6.34671463E-08                    1_GWF-(1,10342)
        621         13         21 -5.52468545E-06                    1_GWF-(1,26487)  1.26719165E-07                    1_GWF-(1,14801)
        622         13         22 -6.05071669E-06                    1_GWF-(1,26486)  7.57773250E-08                    1_GWF-(1,14938)
        623         13         23 -4.25300698E-06                    1_GWF-(1,26487)  7.91280682E-08                    1_GWF-(1,14802)
        624         13         24  3.88721806E-06                    1_GWF-(1,11380)  1.20523285E-07                    1_GWF-(1,14801)
        625         13         25  3.72088869E-06                     1_GWF-(1,8333)  8.00546358E-08                    1_GWF-(1,11455)
        626         13         26  4.78600972E-06                     1_GWF-(1,8339)  7.87421500E-08                    1_GWF-(1,14796)
        627         13         27  3.74505866E-06                     1_GWF-(1,8450)  1.25480005E-07                    1_GWF-(1,14801)
        628         13         28 -3.70451352E-06                    1_GWF-(1,11380)  9.76176779E-08                    1_GWF-(1,11455)
        629         13         29 -3.64725566E-06                    1_GWF-(1,24429)  7.82107834E-08                    1_GWF-(1,14796)
        630         13         30 -3.65249949E-06                    1_GWF-(1,24961)  1.24608513E-07                    1_GWF-(1,14801)
        631         13         31 -3.64758800E-06                    1_GWF-(1,24752)  9.25846062E-08                    1_GWF-(1,14801)
        632         13         32 -3.75982027E-06                    1_GWF-(1,24673)  1.11815135E-07                    1_GWF-(1,14798)
        633         13         33 -3.91636118E-06                    1_GWF-(1,24703)  9.71711982E-08                    1_GWF-(1,14801)
        634         13         34  4.66420867E-06                    1_GWF-(1,26665)  9.13095817E-08                    1_GWF-(1,14801)
        635         13         35 -4.47288194E-06                    1_GWF-(1,26665) -7.17488084E-08                    1_GWF-(1,11455)
        636         13         36  3.63748621E-06                    1_GWF-(1,26665)  6.05360335E-08                    1_GWF-(1,14799)
        637         13         37 -3.27908784E-06                    1_GWF-(1,21419)  1.01590016E-07                    1_GWF-(1,14801)
        638         13         38 -3.23849572E-06                    1_GWF-(1,24311) -7.60185661E-08                    1_GWF-(1,11455)
        639         13         39 -3.57845785E-06                    1_GWF-(1,26543)  4.84833349E-08                    1_GWF-(1,14798)
        640         13         40 -3.77796204E-06                    1_GWF-(1,26487)  9.92218340E-08                    1_GWF-(1,11455)
        641         13         41 -3.63067117E-06                    1_GWF-(1,26486) -6.41185049E-08                    1_GWF-(1,11455)
        642         13         42 -2.94255197E-06                    1_GWF-(1,26487)  6.50541596E-08                    1_GWF-(1,14796)
        643         13         43  2.72968901E-06                    1_GWF-(1,26487)  1.00072167E-07                    1_GWF-(1,11455)
        644         13         44  3.03961857E-06                    1_GWF-(1,26486) -6.02077122E-08                    1_GWF-(1,11455)
        645         13         45  3.62525053E-06                    1_GWF-(1,26487)  5.07764941E-08                    1_GWF-(1,14796)
        646         13         46  3.09242399E-06                    1_GWF-(1,26622)  1.02826394E-07                    1_GWF-(1,11455)
        647         13         47  2.99967766E-06                    1_GWF-(1,26649)  1.28097380E-07                    1_GWF-(1,14801)
        648         13         48  3.18166680E-06                    1_GWF-(1,26622)  6.82369465E-08                    1_GWF-(1,14802)
        649         13         49  2.99422524E-06                    1_GWF-(1,26588)  7.65890777E-08                    1_GWF-(1,11455)
        650         13         50  2.50642395E-06                    1_GWF-(1,26543)  7.07405404E-08                    1_GWF-(1,14801)
        651         14          1  2.94515860E-06                    1_GWF-(1,26588)  4.78590829E-08                    1_GWF-(1,14796)
        652         14          2 -3.52061043E-06                    1_GWF-(1,26588)  6.79167745E-08                    1_GWF-(1,14802)
        653         14          3 -2.83371890E-06                    1_GWF-(1,26622)  1.30875688E-07                    1_GWF-(1,14801)
        654         14          4 -2.44325014E-06                    1_GWF-(1,26649) -6.56024435E-08                    1_GWF-(1,15939)
        655         14          5 -2.32300991E-06                    1_GWF-(1,26622)  6.24741740E-08                    1_GWF-(1,15939)
        656         14          6 -2.70233785E-06                    1_GWF-(1,26487)  5.46397709E-08                    1_GWF-(1,14801)
        657         14          7 -2.34362891E-06                    1_GWF-(1,26420)  7.38968224E-08                    1_GWF-(1,14801)
        658         14          8  1.97879694E-06                    1_GWF-(1,20931)  6.40508649E-08                    1_GWF-(1,15939)
        659         14          9  2.08720792E-06                    1_GWF-(1,26487) -6.48437729E-08                    1_GWF-(1,15939)
        660         14         10  2.30036723E-06                    1_GWF-(1,26486)  9.19214691E-08                    1_GWF-(1,14801)
        661         14         11  2.29241348E-06                    1_GWF-(1,26487)  3.86280447E-08                    1_GWF-(1,14823)
        662         14         12  1.98568510E-06                    1_GWF-(1,26486)  3.77976552E-08                    1_GWF-(1,14796)
        663         14         13  2.07569377E-06                    1_GWF-(1,24313)  6.08604764E-08                    1_GWF-(1,14801)
        664         14         14  2.09379391E-06                    1_GWF-(1,24313) -3.00937400E-08                    1_GWF-(1,15939)
        665         14         15  1.95798073E-06                    1_GWF-(1,21426)  4.78295098E-08                    1_GWF-(1,14796)
        666         14         16  1.82811264E-06                    1_GWF-(1,26665)  4.35690822E-08                    1_GWF-(1,14801)
        667         14         17 -2.24002526E-06                    1_GWF-(1,26665)  5.81475504E-08                    1_GWF-(1,14801)
        668         14         18  2.04166972E-06                    1_GWF-(1,26665)  5.20708214E-08                    1_GWF-(1,14796)
        669         14         19  1.63680124E-06                    1_GWF-(1,24758)  3.67633273E-08                    1_GWF-(1,14799)
        670         14         20  1.59469224E-06                    1_GWF-(1,24751)  6.62029890E-08                    1_GWF-(1,14801)
        671         14         21  1.38609713E-06                    1_GWF-(1,24961)  4.21249530E-08                    1_GWF-(1,14823)
        672         14         22  1.32848275E-06                    1_GWF-(1,24961)  3.18276059E-08                    1_GWF-(1,14798)
        673         14         23  1.20675701E-06                    1_GWF-(1,25117)  5.90893011E-08                    1_GWF-(1,14801)
        674         14         24 -1.32412663E-06                     1_GWF-(1,8474)  3.17849731E-08                    1_GWF-(1,14823)
        675         14         25 -1.55711769E-06                     1_GWF-(1,8444)  2.74392610E-08                    1_GWF-(1,14798)
        676         14         26  1.45920066E-06                    1_GWF-(1,26487)  4.63508420E-08                    1_GWF-(1,14801)
        677         14         27  1.67430524E-06                    1_GWF-(1,26486)  2.29262376E-08                    1_GWF-(1,10342)
        678         14         28  1.43809724E-06                    1_GWF-(1,26588)  2.74799125E-08                    1_GWF-(1,14796)
        679         14         29  1.32042643E-06                    1_GWF-(1,26589)  2.60341615E-08                    1_GWF-(1,14801)
        680         14         30  1.12496956E-06                    1_GWF-(1,26422)  3.35315030E-08                    1_GWF-(1,14801)
        681         14         31 -1.09516573E-06                    1_GWF-(1,26422)  2.59149170E-08                    1_GWF-(1,14796)
        682         14         32  1.04379931E-06                     1_GWF-(1,8035)  2.81811808E-08                    1_GWF-(1,14824)
        683         14         33 -8.93909946E-07                    1_GWF-(1,26486)  4.31072863E-08                    1_GWF-(1,14801)
        684         15          1  7.51706108E-07                    1_GWF-(1,26665)  1.83251197E-08                    1_GWF-(1,14799)
 --------------------------------------------------------------------------------------------------------------------------------------


 UBDSV1 SAVING     FLOW-JA-FACE ON UNIT   1020 AT TIME STEP      1, STRESS PERIOD      1
 UBDSV06 SAVING       DATA-SPDIS IN MODEL ML               PACKAGE NPF             CONNECTED TO MODEL ML               PACKAGE NPF              ON UNIT   1020 AT TIME STEP      1, STRESS PERIOD      1
 UBDSV06 SAVING              WEL IN MODEL ML               PACKAGE ML              CONNECTED TO MODEL ML               PACKAGE WEL_0            ON UNIT   1020 AT TIME STEP      1, STRESS PERIOD      1
 UBDSV06 SAVING              DRN IN MODEL ML               PACKAGE ML              CONNECTED TO MODEL ML               PACKAGE DRN_0            ON UNIT   1020 AT TIME STEP      1, STRESS PERIOD      1
 UBDSV06 SAVING              RIV IN MODEL ML               PACKAGE ML              CONNECTED TO MODEL ML               PACKAGE RIV_0            ON UNIT   1020 AT TIME STEP      1, STRESS PERIOD      1
 UBDSV06 SAVING              GHB IN MODEL ML               PACKAGE ML              CONNECTED TO MODEL ML               PACKAGE GHB_0            ON UNIT   1020 AT TIME STEP      1, STRESS PERIOD      1
 UBDSV06 SAVING              RCH IN MODEL ML               PACKAGE ML              CONNECTED TO MODEL ML               PACKAGE RCHA_0           ON UNIT   1020 AT TIME STEP      1, STRESS PERIOD      1

 HEAD WILL BE SAVED ON UNIT 1021 AT END OF TIME STEP    1, STRESS PERIOD    1


  VOLUME BUDGET FOR ENTIRE MODEL AT END OF TIME STEP    1, STRESS PERIOD   1
  ---------------------------------------------------------------------------------------------------

     CUMULATIVE VOLUME      L**3       RATES FOR THIS TIME STEP      L**3/T          PACKAGE NAME    
     ------------------                 ------------------------                     ----------------

           IN:                                      IN:
           ---                                      ---
                 WEL =           0.0000                   WEL =           0.0000     WEL_0           
                 DRN =           0.0000                   DRN =           0.0000     DRN_0           
                 RIV =           6.0519                   RIV =           1.0087     RIV_0           
                 GHB =          16.5784                   GHB =           2.7631     GHB_0           
                 RCH =           1.5763                   RCH =           0.2627     RCHA_0          

            TOTAL IN =          24.2066              TOTAL IN =           4.0344

          OUT:                                     OUT:
          ----                                     ----
                 WEL =           1.2210                   WEL =           0.2035     WEL_0           
                 DRN =           1.1430                   DRN =           0.1905     DRN_0           
                 RIV =          21.8124                   RIV =           3.6354     RIV_0           
                 GHB =       3.0178E-02                   GHB =       5.0296E-03     GHB_0           
                 RCH =           0.0000                   RCH =           0.0000     RCHA_0          

           TOTAL OUT =          24.2066             TOTAL OUT =           4.0344

            IN - OUT =      -1.6751E-05              IN - OUT =      -2.7918E-06

 PERCENT DISCREPANCY =          -0.00     PERCENT DISCREPANCY =          -0.00




         TIME SUMMARY AT END OF TIME STEP    1 IN STRESS PERIOD    1
                    SECONDS     MINUTES      HOURS       DAYS        YEARS
                    -----------------------------------------------------------
   TIME STEP LENGTH  6.0000     0.10000     1.66667E-03 6.94444E-05 1.90129E-07
 STRESS PERIOD TIME  6.0000     0.10000     1.66667E-03 6.94444E-05 1.90129E-07
         TOTAL TIME  6.0000     0.10000     1.66667E-03 6.94444E-05 1.90129E-07


end timestep

