                                   MODFLOW 6
                U.S. GEOLOGICAL SURVEY MODULAR HYDROLOGIC MODEL
                          GROUNDWATER FLOW MODEL (GWF)
                            VERSION 6.2.2 07/30/2021

   MODFLOW 6 compiled Jul 31 2021 14:22:53 with IFORT compiler (ver. 19.10.3)

This software has been approved for release by the U.S. Geological 
Survey (USGS). Although the software has been subjected to rigorous 
review, the USGS reserves the right to update the software as needed 
pursuant to further analysis and review. No warranty, expressed or 
implied, is made by the USGS or the U.S. Government as to the 
functionality of the software and related material nor shall the 
fact of release constitute any such warranty. Furthermore, the 
software is released on condition that neither the USGS nor the U.S. 
Government shall be held liable for any damages resulting from its 
authorized or unauthorized use. Also refer to the USGS Water 
Resources Software User Rights Notice for complete use, copyright, 
and distribution information.


System command used to initiate simulation:
mf6

MODFLOW was compiled using uniform precision.

Real Variables
  KIND: 8
  TINY (smallest non-zero value):    2.225074-308
  HUGE (largest value):    1.797693+308
  PRECISION: 15
  BIT SIZE: 64

Integer Variables
  KIND: 4
  HUGE (largest value): 2147483647
  BIT SIZE: 32

Long Integer Variables
  KIND: 8
  HUGE (largest value): 9223372036854775807
  BIT SIZE: 64

Logical Variables
  KIND: 4
  BIT SIZE: 32
 

 OPENED ./ml.disv
 FILE TYPE:DISV6                  UNIT 1005   STATUS:OLD                 
 FORMAT:FORMATTED              ACCESS:SEQUENTIAL          
 ACTION:READ                


 OPENED ./ml.ic
 FILE TYPE:IC6                    UNIT 1006   STATUS:OLD                 
 FORMAT:FORMATTED              ACCESS:SEQUENTIAL          
 ACTION:READ                


 OPENED ./ml.npf
 FILE TYPE:NPF6                   UNIT 1007   STATUS:OLD                 
 FORMAT:FORMATTED              ACCESS:SEQUENTIAL          
 ACTION:READ                


 OPENED ./ml.ghb
 FILE TYPE:GHB6                   UNIT 1008   STATUS:OLD                 
 FORMAT:FORMATTED              ACCESS:SEQUENTIAL          
 ACTION:READ                


 OPENED ./ml.rcha
 FILE TYPE:RCH6                   UNIT 1009   STATUS:OLD                 
 FORMAT:FORMATTED              ACCESS:SEQUENTIAL          
 ACTION:READ                


 OPENED ./ml.obs
 FILE TYPE:OBS6                   UNIT 1010   STATUS:OLD                 
 FORMAT:FORMATTED              ACCESS:SEQUENTIAL          
 ACTION:READ                


 OPENED ./ml.oc
 FILE TYPE:OC6                    UNIT 1011   STATUS:OLD                 
 FORMAT:FORMATTED              ACCESS:SEQUENTIAL          
 ACTION:READ                


 OPENED ml.wel
 FILE TYPE:WEL6                   UNIT 1012   STATUS:OLD                 
 FORMAT:FORMATTED              ACCESS:SEQUENTIAL          
 ACTION:READ                


 OPENED ml.drn
 FILE TYPE:DRN6                   UNIT 1013   STATUS:OLD                 
 FORMAT:FORMATTED              ACCESS:SEQUENTIAL          
 ACTION:READ                


 OPENED ml.riv
 FILE TYPE:RIV6                   UNIT 1014   STATUS:OLD                 
 FORMAT:FORMATTED              ACCESS:SEQUENTIAL          
 ACTION:READ                


 DISV -- VERTEX GRID DISCRETIZATION PACKAGE, VERSION 1 : 12/23/2015 - INPUT READ FROM UNIT 1005


 # File generated by Flopy version 3.3.5 on 04/25/2022 at 00:15:45.

 PROCESSING DISCRETIZATION OPTIONS
    MODEL LENGTH UNIT IS METERS
    XORIGIN SPECIFIED AS     405575.681000000    
    YORIGIN SPECIFIED AS     6423306.54000000    
 END OF DISCRETIZATION OPTIONS

 PROCESSING DISCRETIZATION DIMENSIONS
   NLAY = 1
   NCPL = 26674
   NVERT = 27090
 END OF DISCRETIZATION DIMENSIONS

 PROCESSING GRIDDATA
 END PROCESSING GRIDDATA

 PROCESSING VERTICES
   SUCCESSFULLY READ 27090 (X,Y) COORDINATES
   MINIMUM X COORDINATE =     405575.681000000    
   MAXIMUM X COORDINATE =     413975.681000000    
   MINIMUM Y COORDINATE =     6423306.54000000    
   MAXIMUM Y COORDINATE =     6432506.54000000    
 END PROCESSING VERTICES

 PROCESSING CELL2D
   SUCCESSFULLY READ 26674 CELL2D INFORMATION ENTRIES
   MINIMUM X CELL CENTER =     405675.681000000    
   MAXIMUM X CELL CENTER =     413875.681000000    
   MINIMUM Y CELL CENTER =     6423406.54000000    
   MAXIMUM Y CELL CENTER =     6432406.54000000    
   MAXIMUM NUMBER OF CELL2D VERTICES IS 6 FOR CELL 208
 END PROCESSING VERTICES

 NPF -- NODE PROPERTY FLOW PACKAGE, VERSION 1, 3/30/2015 INPUT READ FROM UNIT 1007


 # File generated by Flopy version 3.3.5 on 04/25/2022 at 00:15:48.
 PROCESSING NPF OPTIONS
    CELL-BY-CELL FLOW INFORMATION WILL BE SAVED TO BINARY FILE WHENEVER ICBCFL IS NOT ZERO.
    SPECIFIC DISCHARGE WILL BE CALCULATED AT CELL CENTERS AND WRITTEN TO DATA-SPDIS IN BUDGET FILE WHEN REQUESTED.
 END OF NPF OPTIONS

 WEL   -- WEL PACKAGE, VERSION 8, 2/22/2014 INPUT READ FROM UNIT 1012
 # File generated by Flopy version 3.3.5 on 04/25/2022 at 00:15:48.

 PROCESSING WEL OPTIONS
    WEL BOUNDARIES HAVE NAMES IN LAST COLUMN.
    FLOWS WILL BE SAVED TO BUDGET FILE SPECIFIED IN OUTPUT CONTROL
 END OF WEL OPTIONS

 PROCESSING WEL DIMENSIONS
    MAXBOUND =       9
 END OF WEL DIMENSIONS

 DRN   -- DRN PACKAGE, VERSION 8, 2/22/2014 INPUT READ FROM UNIT 1013
 # File generated by Flopy version 3.3.5 on 04/25/2022 at 00:15:48.

 PROCESSING DRN OPTIONS
    DRN BOUNDARIES HAVE NAMES IN LAST COLUMN.
    FLOWS WILL BE SAVED TO BUDGET FILE SPECIFIED IN OUTPUT CONTROL

 OPENED ml.drn.obs
 FILE TYPE:OBS   UNIT 1016   STATUS:OLD                 
 FORMAT:FORMATTED              ACCESS:SEQUENTIAL          
 ACTION:READ                

 END OF DRN OPTIONS

 PROCESSING DRN DIMENSIONS
    MAXBOUND =     133
 END OF DRN DIMENSIONS

 RIV   -- RIV PACKAGE, VERSION 8, 2/22/2014 INPUT READ FROM UNIT 1014
 # File generated by Flopy version 3.3.5 on 04/25/2022 at 00:15:48.

 PROCESSING RIV OPTIONS
    AUXILIARY RIV VARIABLE: FID             
    RIV BOUNDARIES HAVE NAMES IN LAST COLUMN.
    FLOWS WILL BE SAVED TO BUDGET FILE SPECIFIED IN OUTPUT CONTROL
 END OF RIV OPTIONS

 PROCESSING RIV DIMENSIONS
    MAXBOUND =     794
 END OF RIV DIMENSIONS

 GHB   -- GHB PACKAGE, VERSION 8, 2/22/2014 INPUT READ FROM UNIT 1008
 # File generated by Flopy version 3.3.5 on 04/25/2022 at 00:15:48.

 PROCESSING GHB OPTIONS
    GHB BOUNDARIES HAVE NAMES IN LAST COLUMN.
    FLOWS WILL BE SAVED TO BUDGET FILE SPECIFIED IN OUTPUT CONTROL
 END OF GHB OPTIONS

 PROCESSING GHB DIMENSIONS
    MAXBOUND =     153
 END OF GHB DIMENSIONS

 RCH   -- RCH PACKAGE, VERSION 8, 2/22/2014 INPUT READ FROM UNIT 1009
 # File generated by Flopy version 3.3.5 on 04/25/2022 at 00:15:48.

 PROCESSING RCH OPTIONS
    RECHARGE INPUT WILL BE READ AS ARRAY(S).
    FLOWS WILL BE SAVED TO BUDGET FILE SPECIFIED IN OUTPUT CONTROL
 END OF RCH OPTIONS

 IC -- INITIAL CONDITIONS PACKAGE, VERSION 8, 3/28/2015 INPUT READ FROM UNIT 1006
 # File generated by Flopy version 3.3.5 on 04/25/2022 at 00:15:48.
 PROCESSING GRIDDATA

     INITIAL HEAD =   15.00000    
 END PROCESSING GRIDDATA
 PROCESSING GRIDDATA

                ICELLTYPE = 0

 OPENED ../com_ext/k.txt
 FILE TYPE:OPEN/CLOSE   UNIT 1017   STATUS:OLD                 
 FORMAT:FORMATTED              ACCESS:SEQUENTIAL          
 ACTION:READ                

 K33 not provided.  Assuming K33 = K.
 K22 not provided.  Assuming K22 = K.
 END PROCESSING GRIDDATA

The observation utility is active for "ML"
 # File generated by Flopy version 3.3.5 on 04/25/2022 at 00:15:48.

Processing observation options:

Text output number of digits of precision set to: 10
The PRINT_INPUT option has been specified.


 OBSERVATIONS READ FROM FILE "ml.obs"
 ----------------------------------------------------------------------------------------------------------------------------------------------------------------------------------------------------------------------------
 NAME                                     TYPE                                       TIME         LOCATION DATA                              OUTPUT FILENAME                                                                 
 ----------------------------------------------------------------------------------------------------------------------------------------------------------------------------------------------------------------------------
 PRG                                      CONTINUOUS  HEAD                           ALL TIMES    "1 16523"                                  sim/hds.csv                                                                     
 P8                                       CONTINUOUS  HEAD                           ALL TIMES    "1 10323"                                  sim/hds.csv                                                                     
 P24                                      CONTINUOUS  HEAD                           ALL TIMES    "1 9594"                                   sim/hds.csv                                                                     
 P25                                      CONTINUOUS  HEAD                           ALL TIMES    "1 13966"                                  sim/hds.csv                                                                     
 P32                                      CONTINUOUS  HEAD                           ALL TIMES    "1 15787"                                  sim/hds.csv                                                                     
 P33                                      CONTINUOUS  HEAD                           ALL TIMES    "1 15825"                                  sim/hds.csv                                                                     
 PF                                       CONTINUOUS  HEAD                           ALL TIMES    "1 21048"                                  sim/hds.csv                                                                     
 PH                                       CONTINUOUS  HEAD                           ALL TIMES    "1 20781"                                  sim/hds.csv                                                                     
 PZHM1                                    CONTINUOUS  HEAD                           ALL TIMES    "1 14521"                                  sim/hds.csv                                                                     
 P26                                      CONTINUOUS  HEAD                           ALL TIMES    "1 13141"                                  sim/hds.csv                                                                     
 P27                                      CONTINUOUS  HEAD                           ALL TIMES    "1 8465"                                   sim/hds.csv                                                                     
 P28                                      CONTINUOUS  HEAD                           ALL TIMES    "1 8924"                                   sim/hds.csv                                                                     
 P29                                      CONTINUOUS  HEAD                           ALL TIMES    "1 4524"                                   sim/hds.csv                                                                     
 P30                                      CONTINUOUS  HEAD                           ALL TIMES    "1 5255"                                   sim/hds.csv                                                                     
 R20                                      CONTINUOUS  HEAD                           ALL TIMES    "1 10676"                                  sim/hds.csv                                                                     
 R21                                      CONTINUOUS  HEAD                           ALL TIMES    "1 10403"                                  sim/hds.csv                                                                     
 P34                                      CONTINUOUS  HEAD                           ALL TIMES    "1 15131"                                  sim/hds.csv                                                                     
 P37                                      CONTINUOUS  HEAD                           ALL TIMES    "1 15755"                                  sim/hds.csv                                                                     
 P38                                      CONTINUOUS  HEAD                           ALL TIMES    "1 15045"                                  sim/hds.csv                                                                     
 P39                                      CONTINUOUS  HEAD                           ALL TIMES    "1 9637"                                   sim/hds.csv                                                                     
 P40                                      CONTINUOUS  HEAD                           ALL TIMES    "1 9312"                                   sim/hds.csv                                                                     
 AP1                                      CONTINUOUS  HEAD                           ALL TIMES    "1 9702"                                   sim/hds.csv                                                                     
 RCK1                                     CONTINUOUS  HEAD                           ALL TIMES    "1 15900"                                  sim/hds.csv                                                                     
 RCK2                                     CONTINUOUS  HEAD                           ALL TIMES    "1 15199"                                  sim/hds.csv                                                                     
 P23                                      CONTINUOUS  HEAD                           ALL TIMES    "1 6409"                                   sim/hds.csv                                                                     
 ----------------------------------------------------------------------------------------------------------------------------------------------------------------------------------------------------------------------------


    BINARY GRID INFORMATION WILL BE WRITTEN TO:
      UNIT NUMBER: 1019
      FILE NAME: /srv/common/ptrack/case_study/pst/ml_06/./ml.disv.grb

 OPENED /srv/common/ptrack/case_study/pst/ml_06/./ml.disv.grb
 FILE TYPE:DATA(BINARY)   UNIT 1019   STATUS:REPLACE             
 FORMAT:UNFORMATTED            ACCESS:STREAM              
 ACTION:READWRITE           

      THE LAST TIME STEP WILL BE PRINTED
      THE LAST TIME STEP WILL BE PRINTED
 # File generated by Flopy version 3.3.5 on 04/25/2022 at 00:15:48.

 PROCESSING OC OPTIONS

    BUDGET INFORMATION WILL BE WRITTEN TO:
      UNIT NUMBER: 1020
      FILE NAME: ml.cbc

 OPENED ml.cbc
 FILE TYPE:DATA(BINARY)   UNIT 1020   STATUS:REPLACE             
 FORMAT:UNFORMATTED            ACCESS:STREAM              
 ACTION:READWRITE           

    HEAD INFORMATION WILL BE WRITTEN TO:
      UNIT NUMBER: 1021
      FILE NAME: ml.hds

 OPENED ml.hds
 FILE TYPE:DATA(BINARY)   UNIT 1021   STATUS:REPLACE             
 FORMAT:UNFORMATTED            ACCESS:STREAM              
 ACTION:READWRITE           

 END OF OC OPTIONS

The observation utility is active for "DRN_0"
 # File generated by Flopy version 3.3.5 on 04/25/2022 at 00:15:48.

Processing observation options:



start timestep kper="1" kstp="1" mode="normal"


 BEGIN READING OUTPUT CONTROL FOR STRESS PERIOD 1
      THE LAST TIME STEP WILL BE SAVED
      THE LAST TIME STEP WILL BE SAVED

 END READING OUTPUT CONTROL FOR STRESS PERIOD 1

 OPENED ext/well_spd_1.txt
 FILE TYPE:OPEN/CLOSE   UNIT 1023   STATUS:OLD                 
 FORMAT:FORMATTED              ACCESS:SEQUENTIAL          
 ACTION:READ                


 OPENED ext/drn_spd_1.txt
 FILE TYPE:OPEN/CLOSE   UNIT 1024   STATUS:OLD                 
 FORMAT:FORMATTED              ACCESS:SEQUENTIAL          
 ACTION:READ                


 OPENED ext/riv_spd_1.txt
 FILE TYPE:OPEN/CLOSE   UNIT 1025   STATUS:OLD                 
 FORMAT:FORMATTED              ACCESS:SEQUENTIAL          
 ACTION:READ                


 OPENED ../com_ext/ghb_spd_1.txt
 FILE TYPE:OPEN/CLOSE   UNIT 1026   STATUS:OLD                 
 FORMAT:FORMATTED              ACCESS:SEQUENTIAL          
 ACTION:READ                


 OPENED ../com_ext/rech_spd_1.txt
 FILE TYPE:OPEN/CLOSE   UNIT 1027   STATUS:OLD                 
 FORMAT:FORMATTED              ACCESS:SEQUENTIAL          
 ACTION:READ                


 SLN_1 INNER ITERATION SUMMARY
 --------------------------------------------------------------------------------------------------------------------------------------
      TOTAL      OUTER      INNER                                                            MAXIMUM                                   
  ITERATION  ITERATION  ITERATION  MAXIMUM CHANGE      MAXIMUM CHANGE MODEL-(CELLID)        RESIDUAL    MAXIMUM RESIDUAL MODEL-(CELLID)
 --------------------------------------------------------------------------------------------------------------------------------------
          1          1          1       183.02770                    1_GWF-(1,26381)       1.9458900                     1_GWF-(1,7788)
          2          1          2       273.17022                    1_GWF-(1,26380)      -1.1321554                    1_GWF-(1,15907)
          3          1          3       157.70701                    1_GWF-(1,26444)      0.85953672                    1_GWF-(1,15907)
          4          1          4       83.401904                    1_GWF-(1,26380)      0.57246030                    1_GWF-(1,15226)
          5          1          5       66.846487                    1_GWF-(1,26520)     -0.37939083                    1_GWF-(1,15221)
          6          1          6       60.529691                    1_GWF-(1,26572)      0.46010241                    1_GWF-(1,15216)
          7          1          7       62.527103                    1_GWF-(1,26648)      0.40458761                    1_GWF-(1,15226)
          8          1          8       53.629061                    1_GWF-(1,26649)     -0.36412147                    1_GWF-(1,15226)
          9          1          9       39.093568                    1_GWF-(1,26589)      0.33154328                    1_GWF-(1,15221)
         10          1         10       32.685522                    1_GWF-(1,26543)     -0.17096432                    1_GWF-(1,15216)
         11          1         11       24.865393                    1_GWF-(1,26544)     -0.15659716                    1_GWF-(1,15226)
         12          1         12       21.003693                    1_GWF-(1,26420)      0.19840904                    1_GWF-(1,15221)
         13          1         13       18.478513                    1_GWF-(1,26422) -6.96721309E-02                    1_GWF-(1,15216)
         14          1         14       13.352685                    1_GWF-(1,26350) -9.22901830E-02                    1_GWF-(1,15221)
         15          1         15       8.5995249                    1_GWF-(1,26218)  9.96672175E-02                    1_GWF-(1,15221)
         16          1         16      -8.2478274                    1_GWF-(1,26622)  4.53993796E-02                    1_GWF-(1,11047)
         17          1         17      -6.5393710                    1_GWF-(1,26623)     -0.11814489                    1_GWF-(1,15221)
         18          1         18      -6.1829115                    1_GWF-(1,26543)      0.12159175                    1_GWF-(1,15221)
         19          1         19      -6.8626340                    1_GWF-(1,26588)  6.12716024E-02                    1_GWF-(1,11152)
         20          1         20       10.396945                    1_GWF-(1,26588)     -0.10781561                    1_GWF-(1,15221)
         21          1         21      -8.3558485                    1_GWF-(1,26588)  6.72790983E-02                    1_GWF-(1,15221)
         22          1         22      -8.7035066                    1_GWF-(1,26543)  7.45032639E-02                    1_GWF-(1,15910)
         23          1         23      -7.6942667                    1_GWF-(1,26544)     -0.11392914                    1_GWF-(1,15221)
         24          1         24      -11.089292                    1_GWF-(1,26486)  5.13790506E-02                    1_GWF-(1,15221)
         25          1         25      -10.319843                    1_GWF-(1,26487)  8.69961247E-02                    1_GWF-(1,15910)
         26          1         26       10.897141                    1_GWF-(1,26487) -9.03117898E-02                    1_GWF-(1,15221)
         27          1         27       10.593579                    1_GWF-(1,26420) -5.26285499E-02                    1_GWF-(1,11203)
         28          1         28       6.3434802                    1_GWF-(1,26487)  6.36712041E-02                    1_GWF-(1,15910)
         29          1         29       4.5221281                    1_GWF-(1,26542) -5.85791304E-02                    1_GWF-(1,15221)
         30          1         30       5.1614874                    1_GWF-(1,26623) -3.42734329E-02                    1_GWF-(1,11050)
         31          1         31       3.8573074                    1_GWF-(1,26586)  4.61418874E-02                    1_GWF-(1,15910)
         32          1         32       3.8973155                    1_GWF-(1,26422) -5.11672429E-02                    1_GWF-(1,11203)
         33          1         33       4.3579295                    1_GWF-(1,26544) -4.38827651E-02                    1_GWF-(1,11200)
         34          1         34       3.9387700                    1_GWF-(1,26665)  2.85980245E-02                    1_GWF-(1,15910)
         35          1         35       3.4898534                    1_GWF-(1,26350) -2.88381328E-02                    1_GWF-(1,15221)
         36          1         36       3.7832351                    1_GWF-(1,26422) -2.44721094E-02                    1_GWF-(1,11200)
         37          1         37      -2.7348133                    1_GWF-(1,26422) -2.39265857E-02                    1_GWF-(1,11152)
         38          1         38      -3.4743963                    1_GWF-(1,26350) -2.80513941E-02                    1_GWF-(1,15216)
         39          1         39      -2.3579639                    1_GWF-(1,26622) -3.53786860E-02                    1_GWF-(1,11206)
         40          1         40      -2.4174617                    1_GWF-(1,26648)  2.73861064E-02                    1_GWF-(1,11108)
         41          1         41      -1.8652443                    1_GWF-(1,26649)  2.92226787E-02                    1_GWF-(1,11159)
         42          1         42      -1.7084451                    1_GWF-(1,26623)  3.60298428E-02                    1_GWF-(1,11197)
         43          1         43      -1.6219092                    1_GWF-(1,26586) -3.21339552E-02                    1_GWF-(1,11206)
         44          1         44      -1.2311212                    1_GWF-(1,26543)  3.96300612E-02                    1_GWF-(1,11206)
         45          1         45      -1.2163083                    1_GWF-(1,26486)  2.40198480E-02                    1_GWF-(1,11201)
         46          1         46       1.0199061                    1_GWF-(1,26649) -2.12525798E-02                    1_GWF-(1,11201)
         47          1         47       1.1804923                    1_GWF-(1,26648) -2.18897327E-02                    1_GWF-(1,12427)
         48          1         48      -1.5724352                    1_GWF-(1,26218)  2.48516755E-02                    1_GWF-(1,11197)
         49          1         49      -1.6075359                    1_GWF-(1,26217) -1.71861859E-02                    1_GWF-(1,11206)
         50          1         50       1.1501491                    1_GWF-(1,26217)  1.34171074E-02                    1_GWF-(1,11206)
         51          2          1      -609.58986                    1_GWF-(1,26381)      -3.3983623                    1_GWF-(1,26381)
         52          2          2      -219.96718                    1_GWF-(1,26513)       1.1516738                    1_GWF-(1,26381)
         53          2          3      -104.63725                    1_GWF-(1,26440)      0.72246930                    1_GWF-(1,26506)
         54          2          4      -62.911630                    1_GWF-(1,26665)     -0.29514504                    1_GWF-(1,26506)
         55          2          5      -52.721636                    1_GWF-(1,26649)      0.28506786                    1_GWF-(1,26381)
         56          2          6      -45.633550                    1_GWF-(1,26589)     -0.30889798                    1_GWF-(1,26381)
         57          2          7      -41.556745                    1_GWF-(1,26588)     -0.25953606                    1_GWF-(1,26506)
         58          2          8      -32.160904                    1_GWF-(1,26544)      0.13357925                    1_GWF-(1,26506)
         59          2          9      -25.661470                    1_GWF-(1,26487)     -0.11622771                    1_GWF-(1,26381)
         60          2         10      -19.080413                    1_GWF-(1,26421)     -0.12240824                    1_GWF-(1,26506)
         61          2         11      -17.108333                    1_GWF-(1,26348)  5.25396952E-02                    1_GWF-(1,26665)
         62          2         12      -13.070767                    1_GWF-(1,26218) -7.81247865E-02                    1_GWF-(1,26381)
         63          2         13      -7.9525349                    1_GWF-(1,26218) -7.32478792E-02                    1_GWF-(1,26506)
         64          2         14      -6.6363250                    1_GWF-(1,26649)  2.97012965E-02                    1_GWF-(1,26551)
         65          2         15      -8.1075547                    1_GWF-(1,26622) -6.70193398E-02                    1_GWF-(1,26381)
         66          2         16      -8.4483661                    1_GWF-(1,26623) -7.82480121E-02                    1_GWF-(1,26506)
         67          2         17      -7.0783587                    1_GWF-(1,26622)  4.21591470E-02                    1_GWF-(1,26551)
         68          2         18       7.0633270                    1_GWF-(1,26422) -7.94108871E-02                    1_GWF-(1,26381)
         69          2         19       7.0685043                    1_GWF-(1,26588) -7.34270556E-02                    1_GWF-(1,26506)
         70          2         20       9.0265579                    1_GWF-(1,26543) -3.93002137E-02                    1_GWF-(1,26447)
         71          2         21       10.389409                    1_GWF-(1,26588) -9.06620817E-02                    1_GWF-(1,26381)
         72          2         22       10.306957                    1_GWF-(1,26543) -6.94121298E-02                    1_GWF-(1,26506)
         73          2         23       7.3785501                    1_GWF-(1,26542) -5.50356722E-02                    1_GWF-(1,26447)
         74          2         24      -7.9095649                    1_GWF-(1,26487) -9.87554911E-02                    1_GWF-(1,26381)
         75          2         25      -10.288090                    1_GWF-(1,26486) -5.40807574E-02                    1_GWF-(1,26506)
         76          2         26      -11.287837                    1_GWF-(1,26487)  8.01664900E-02                    1_GWF-(1,26381)
         77          2         27      -7.8369538                    1_GWF-(1,26486)      0.10255900                    1_GWF-(1,26506)
         78          2         28      -4.5908301                    1_GWF-(1,26477) -5.02255462E-02                    1_GWF-(1,26506)
         79          2         29      -3.0229597                    1_GWF-(1,26649)  3.79022736E-02                    1_GWF-(1,26381)
         80          2         30       3.1944083                    1_GWF-(1,26420)  6.27514795E-02                    1_GWF-(1,26506)
         81          2         31      -2.7725350                    1_GWF-(1,26663) -4.55080329E-02                    1_GWF-(1,26506)
         82          2         32      -2.9665901                    1_GWF-(1,26421) -2.25313928E-02                    1_GWF-(1,26378)
         83          2         33      -3.7846621                    1_GWF-(1,26350) -4.92729567E-02                    1_GWF-(1,26381)
         84          2         34      -2.8018216                    1_GWF-(1,26422) -5.12337235E-02                    1_GWF-(1,26506)
         85          2         35       3.7891882                    1_GWF-(1,26422) -2.46902016E-02                    1_GWF-(1,26378)
         86          2         36       3.2662682                    1_GWF-(1,26350) -3.49091907E-02                    1_GWF-(1,26381)
         87          2         37      -3.0746478                    1_GWF-(1,26350) -4.56589719E-02                    1_GWF-(1,26506)
         88          2         38       2.8354436                    1_GWF-(1,26350) -2.00924600E-02                    1_GWF-(1,26378)
         89          2         39       3.2977661                    1_GWF-(1,26422) -3.02458292E-02                    1_GWF-(1,26381)
         90          2         40       2.1844548                    1_GWF-(1,26350) -4.32195139E-02                    1_GWF-(1,26506)
         91          2         41       1.3623304                    1_GWF-(1,26217)  2.67908838E-02                    1_GWF-(1,26506)
         92          2         42      0.96591543                    1_GWF-(1,26218)  1.53953533E-02                    1_GWF-(1,26378)
         93          2         43       1.0488423                    1_GWF-(1,26663)  2.71195213E-02                    1_GWF-(1,26381)
         94          2         44     -0.90754177                    1_GWF-(1,26217)  2.79327249E-02                    1_GWF-(1,26506)
         95          2         45     -0.75432871                    1_GWF-(1,26192)  1.96218772E-02                     1_GWF-(1,9692)
         96          2         46     -0.64151012                    1_GWF-(1,26242)  3.18893104E-02                     1_GWF-(1,9691)
         97          2         47     -0.76695791                    1_GWF-(1,26218)  3.23356795E-02                     1_GWF-(1,9692)
         98          2         48      -1.0748935                    1_GWF-(1,26217)  5.80393559E-02                     1_GWF-(1,9691)
         99          2         49      0.73714768                    1_GWF-(1,25377) -6.95332549E-02                     1_GWF-(1,9691)
        100          2         50     -0.70146493                    1_GWF-(1,23037)      0.10129918                     1_GWF-(1,9691)
        101          3          1      0.40146700                    1_GWF-(1,26674) -5.17719403E-02                     1_GWF-(1,9691)
        102          3          2      0.52584530                    1_GWF-(1,22782)      0.11243481                     1_GWF-(1,9691)
        103          3          3      0.67224142                    1_GWF-(1,26217) -9.87991527E-02                     1_GWF-(1,9691)
        104          3          4      0.70019172                    1_GWF-(1,26218)  9.65617654E-02                     1_GWF-(1,9691)
        105          3          5      0.41153398                    1_GWF-(1,26422) -9.47337795E-02                     1_GWF-(1,9691)
        106          3          6     -0.36301378                    1_GWF-(1,26217)      0.11475352                     1_GWF-(1,9691)
        107          3          7      0.40632702                    1_GWF-(1,26194) -9.33095109E-02                     1_GWF-(1,9691)
        108          3          8      0.29459069                    1_GWF-(1,26407)  9.14164927E-02                     1_GWF-(1,9691)
        109          3          9      0.41588982                    1_GWF-(1,13206) -7.99090645E-02                     1_GWF-(1,9691)
        110          3         10      0.41545336                    1_GWF-(1,13192)  8.48962943E-02                     1_GWF-(1,9691)
        111          3         11     -0.41373654                    1_GWF-(1,26543) -6.62167336E-02                     1_GWF-(1,9691)
        112          3         12      0.53173227                    1_GWF-(1,26648)  6.44976336E-02                     1_GWF-(1,9691)
        113          3         13     -0.40008669                    1_GWF-(1,26623) -5.08929967E-02                     1_GWF-(1,9691)
        114          3         14     -0.40705838                    1_GWF-(1,26649)  4.92659837E-02                     1_GWF-(1,9691)
        115          3         15     -0.60079321                    1_GWF-(1,26648)  3.36401063E-02                     1_GWF-(1,9692)
        116          3         16     -0.52359884                    1_GWF-(1,26665)  3.40217602E-02                     1_GWF-(1,9691)
        117          3         17     -0.42131107                    1_GWF-(1,26674)  1.96287511E-02                     1_GWF-(1,9692)
        118          3         18      0.28450290                    1_GWF-(1,26647)  1.62474731E-02                     1_GWF-(1,9691)
        119          3         19      0.41537755                    1_GWF-(1,26665)  8.88665323E-03                     1_GWF-(1,9692)
        120          3         20      0.40609823                    1_GWF-(1,26674)  7.42287573E-03                     1_GWF-(1,9691)
        121          3         21      0.20459059                    1_GWF-(1,26422) -7.25189809E-03                    1_GWF-(1,16201)
        122          3         22      0.38032497                    1_GWF-(1,26350)  6.07390183E-03                    1_GWF-(1,10961)
        123          3         23      0.39643337                    1_GWF-(1,26422)  9.63749285E-03                     1_GWF-(1,9691)
        124          3         24      0.52990964                    1_GWF-(1,26420)  9.13190282E-03                     1_GWF-(1,9692)
        125          3         25      0.48024136                    1_GWF-(1,26422)  1.05918757E-02                     1_GWF-(1,9691)
        126          3         26      0.51350214                    1_GWF-(1,26420)  6.31476583E-03                     1_GWF-(1,9692)
        127          3         27      0.43268943                    1_GWF-(1,26487) -5.20142086E-03                    1_GWF-(1,16201)
        128          3         28     -0.41202265                    1_GWF-(1,26487)  7.87493671E-03                     1_GWF-(1,9691)
        129          3         29     -0.55811441                    1_GWF-(1,26486)  7.16260319E-03                     1_GWF-(1,9692)
        130          3         30     -0.40669657                    1_GWF-(1,26487)  7.32646018E-03                     1_GWF-(1,9691)
        131          3         31     -0.38139017                    1_GWF-(1,26486)  4.13826999E-03                    1_GWF-(1,11145)
        132          3         32     -0.34229514                    1_GWF-(1,26588)  3.74759256E-03                    1_GWF-(1,11148)
        133          3         33     -0.37632934                    1_GWF-(1,26543)  5.11955388E-03                     1_GWF-(1,9691)
        134          3         34     -0.45390542                    1_GWF-(1,26588)  5.39927432E-03                     1_GWF-(1,9692)
        135          3         35      0.34670990                    1_GWF-(1,26588)  5.63935936E-03                     1_GWF-(1,9691)
        136          3         36      0.26093233                    1_GWF-(1,26665)  4.79392782E-03                    1_GWF-(1,11147)
        137          3         37      0.36416431                    1_GWF-(1,26649)  4.86364330E-03                    1_GWF-(1,11048)
        138          3         38      0.45347806                    1_GWF-(1,26622)  4.04937248E-03                    1_GWF-(1,16201)
        139          3         39     -0.37972286                    1_GWF-(1,26622)  3.93253356E-03                    1_GWF-(1,11133)
        140          3         40     -0.29986507                    1_GWF-(1,26623) -4.05154503E-03                    1_GWF-(1,11149)
        141          3         41     -0.23515205                    1_GWF-(1,26666)  4.08619822E-03                    1_GWF-(1,11047)
        142          3         42     -0.34273494                    1_GWF-(1,26665)  3.46149704E-03                    1_GWF-(1,11152)
        143          3         43     -0.31313078                    1_GWF-(1,26666)  3.73814738E-03                    1_GWF-(1,11135)
        144          3         44     -0.28979977                    1_GWF-(1,26665)  3.55989132E-03                    1_GWF-(1,11058)
        145          3         45      0.29734818                    1_GWF-(1,26665)  4.38171646E-03                    1_GWF-(1,11053)
        146          3         46      0.24050982                    1_GWF-(1,26666) -2.99523570E-03                    1_GWF-(1,11059)
        147          3         47     -0.17407161                    1_GWF-(1,26543) -3.19658667E-03                    1_GWF-(1,11054)
        148          3         48     -0.17051521                    1_GWF-(1,26542)  2.93598500E-03                    1_GWF-(1,10966)
        149          3         49     -0.20214126                    1_GWF-(1,26623)  3.13902501E-03                    1_GWF-(1,11156)
        150          3         50     -0.17114493                    1_GWF-(1,26586)  2.33044039E-03                    1_GWF-(1,11155)
        151          4          1     -0.29588917                    1_GWF-(1,11428) -7.96886318E-03                    1_GWF-(1,10745)
        152          4          2     -0.24739621                    1_GWF-(1,11421) -5.84987712E-03                    1_GWF-(1,15063)
        153          4          3     -0.19542780                    1_GWF-(1,11401)  3.39126696E-03                    1_GWF-(1,15063)
        154          4          4     -0.17510094                    1_GWF-(1,11393)  2.59079659E-03                    1_GWF-(1,15062)
        155          4          5     -0.14538007                    1_GWF-(1,11316)  2.62944984E-03                    1_GWF-(1,15067)
        156          4          6 -9.52053890E-02                    1_GWF-(1,11318)  2.76227862E-03                    1_GWF-(1,15063)
        157          4          7      0.11521078                    1_GWF-(1,11403)  2.76680233E-03                    1_GWF-(1,10651)
        158          4          8     -0.10961524                    1_GWF-(1,26665) -2.59882521E-03                    1_GWF-(1,15062)
        159          4          9      0.11576139                    1_GWF-(1,26665) -2.68912579E-03                    1_GWF-(1,15067)
        160          4         10     -0.14098521                    1_GWF-(1,26665) -2.18263360E-03                    1_GWF-(1,15058)
        161          4         11      0.12286390                    1_GWF-(1,26665) -2.01288492E-03                    1_GWF-(1,15062)
        162          4         12 -6.96248794E-02                    1_GWF-(1,11369) -2.28997876E-03                    1_GWF-(1,15067)
        163          4         13 -8.06997911E-02                    1_GWF-(1,26622) -1.75592483E-03                    1_GWF-(1,15058)
        164          4         14  8.23473663E-02                    1_GWF-(1,26622)  8.56175900E-04                    1_GWF-(1,15093)
        165          4         15  6.32065039E-02                    1_GWF-(1,26649)  1.03157222E-03                    1_GWF-(1,15058)
        166          4         16  5.24258529E-02                    1_GWF-(1,26622) -1.24039962E-03                    1_GWF-(1,15058)
        167          4         17 -4.18567186E-02                    1_GWF-(1,26218) -1.20848943E-03                    1_GWF-(1,15079)
        168          4         18 -5.30955712E-02                    1_GWF-(1,26588)  1.29762209E-03                    1_GWF-(1,15069)
        169          4         19  6.25608825E-02                    1_GWF-(1,26588) -1.22426861E-03                    1_GWF-(1,15058)
        170          4         20 -7.86455386E-02                    1_GWF-(1,26588)  1.02799267E-03                    1_GWF-(1,10961)
        171          4         21 -5.96276729E-02                    1_GWF-(1,26543)  9.30669514E-04                    1_GWF-(1,15069)
        172          4         22 -3.98704440E-02                    1_GWF-(1,26588) -1.03137152E-03                    1_GWF-(1,10961)
        173          4         23 -4.26872432E-02                    1_GWF-(1,26486) -1.11530022E-03                    1_GWF-(1,15079)
        174          4         24  5.03404378E-02                    1_GWF-(1,26486) -1.06562131E-03                    1_GWF-(1,15078)
        175          4         25 -6.10246092E-02                    1_GWF-(1,26486)  7.59521838E-04                    1_GWF-(1,10959)
        176          4         26 -5.71848821E-02                    1_GWF-(1,26487) -1.14779057E-03                    1_GWF-(1,15079)
        177          4         27 -5.37869503E-02                    1_GWF-(1,26420) -1.43374192E-03                    1_GWF-(1,15078)
        178          4         28 -5.67393513E-02                    1_GWF-(1,26422)  1.35921987E-03                    1_GWF-(1,15078)
        179          4         29 -5.67439384E-02                    1_GWF-(1,26350)  1.09260694E-03                    1_GWF-(1,15083)
        180          4         30 -4.83670478E-02                    1_GWF-(1,26422)  8.64233563E-04                     1_GWF-(1,5697)
        181          4         31  5.71655420E-02                    1_GWF-(1,26422)  1.08665966E-03                    1_GWF-(1,15078)
        182          4         32  4.79724292E-02                    1_GWF-(1,26350)  1.08087265E-03                    1_GWF-(1,15083)
        183          4         33  3.90845901E-02                    1_GWF-(1,26421) -8.80794927E-04                    1_GWF-(1,15083)
        184          4         34  2.99871357E-02                    1_GWF-(1,26350) -8.00620142E-04                    1_GWF-(1,11145)
        185          4         35 -2.68067061E-02                    1_GWF-(1,11459) -7.12787947E-04                    1_GWF-(1,11148)
        186          4         36 -2.54422965E-02                    1_GWF-(1,11365)  1.01435978E-03                     1_GWF-(1,9691)
        187          4         37 -1.68373508E-02                    1_GWF-(1,11366)  1.06726841E-03                     1_GWF-(1,9692)
        188          4         38  2.98664127E-02                    1_GWF-(1,11454)  1.60116233E-03                     1_GWF-(1,9691)
        189          4         39 -1.74111771E-02                    1_GWF-(1,26217)  1.65810333E-03                     1_GWF-(1,9692)
        190          4         40 -1.92151807E-02                    1_GWF-(1,11380)  2.57643413E-03                     1_GWF-(1,9691)
        191          4         41 -1.37788985E-02                    1_GWF-(1,13517) -2.48216189E-03                     1_GWF-(1,9691)
        192          4         42  1.22900512E-02                    1_GWF-(1,11369)  3.34954804E-03                     1_GWF-(1,9691)
        193          4         43 -1.37797913E-02                    1_GWF-(1,11369) -3.16776290E-03                     1_GWF-(1,9691)
        194          4         44  1.20632269E-02                    1_GWF-(1,11453)  3.48670449E-03                     1_GWF-(1,9691)
        195          4         45  1.04437639E-02                    1_GWF-(1,26218) -3.23371890E-03                     1_GWF-(1,9691)
        196          4         46 -7.37545819E-03                    1_GWF-(1,14224)  3.49052983E-03                     1_GWF-(1,9691)
        197          4         47  7.60548943E-03                    1_GWF-(1,11701) -2.82033852E-03                     1_GWF-(1,9691)
        198          4         48  7.20945863E-03                    1_GWF-(1,11454)  3.07302050E-03                     1_GWF-(1,9691)
        199          4         49  7.38405115E-03                    1_GWF-(1,11381) -2.36823689E-03                     1_GWF-(1,9691)
        200          4         50 -9.09750842E-03                    1_GWF-(1,26217)  2.48614641E-03                     1_GWF-(1,9691)
        201          5          1 -5.18409755E-02                    1_GWF-(1,11378)  9.25464560E-04                     1_GWF-(1,9692)
        202          5          2 -3.38362562E-02                    1_GWF-(1,11369)  2.75858717E-03                     1_GWF-(1,9691)
        203          5          3 -1.98506435E-02                    1_GWF-(1,11454) -2.96982869E-03                     1_GWF-(1,9691)
        204          5          4  2.05079400E-02                    1_GWF-(1,11378)  2.72479881E-03                     1_GWF-(1,9691)
        205          5          5 -2.19445582E-02                    1_GWF-(1,11373) -2.48001653E-03                     1_GWF-(1,9691)
        206          5          6  1.85806121E-02                    1_GWF-(1,11373)  2.83090497E-03                     1_GWF-(1,9691)
        207          5          7  2.71389654E-02                    1_GWF-(1,11378) -2.17633611E-03                     1_GWF-(1,9691)
        208          5          8  1.96764519E-02                    1_GWF-(1,11368)  2.04691463E-03                     1_GWF-(1,9691)
        209          5          9 -1.56513136E-02                    1_GWF-(1,11368) -1.79982981E-03                     1_GWF-(1,9691)
        210          5         10 -1.69959661E-02                    1_GWF-(1,11451)  1.71833481E-03                     1_GWF-(1,9691)
        211          5         11 -2.27877068E-02                    1_GWF-(1,11378) -1.04115984E-03                     1_GWF-(1,9691)
        212          5         12 -1.88780785E-02                    1_GWF-(1,11368)  9.89430050E-04                     1_GWF-(1,9691)
        213          5         13 -1.61418159E-02                    1_GWF-(1,11451)  6.31971629E-04                     1_GWF-(1,9692)
        214          5         14  1.44890191E-02                    1_GWF-(1,11451)  6.10034095E-04                     1_GWF-(1,9691)
        215          5         15  1.48688018E-02                    1_GWF-(1,11452)  3.59906441E-04                     1_GWF-(1,9692)
        216          5         16  1.19260784E-02                    1_GWF-(1,11368)  2.74132655E-04                     1_GWF-(1,9691)
        217          5         17 -9.24892459E-03                    1_GWF-(1,26487)  1.64563538E-04                    1_GWF-(1,10651)
        218          5         18 -1.21408206E-02                    1_GWF-(1,26486)  1.64361835E-04                    1_GWF-(1,11352)
        219          5         19 -1.02893780E-02                    1_GWF-(1,26588) -3.11459358E-04                    1_GWF-(1,10651)
        220          5         20 -8.36160748E-03                    1_GWF-(1,11415) -2.46000855E-04                    1_GWF-(1,10652)
        221          5         21 -8.37753328E-03                    1_GWF-(1,11454) -2.44941474E-04                    1_GWF-(1,10651)
        222          5         22 -8.89583409E-03                    1_GWF-(1,11452)  1.25376124E-04                    1_GWF-(1,15078)
        223          5         23 -8.02985373E-03                    1_GWF-(1,11415)  9.79181515E-05                    1_GWF-(1,11039)
        224          5         24  7.21041622E-03                    1_GWF-(1,26421)  1.42783501E-04                    1_GWF-(1,11352)
        225          5         25  8.04782888E-03                    1_GWF-(1,26350)  1.13843876E-04                    1_GWF-(1,11048)
        226          5         26  8.45984574E-03                    1_GWF-(1,26422)  1.77233657E-04                     1_GWF-(1,9691)
        227          5         27  6.87234559E-03                    1_GWF-(1,26544)  1.33913949E-04                     1_GWF-(1,9692)
        228          5         28  6.59557689E-03                    1_GWF-(1,26486)  9.94539818E-05                     1_GWF-(1,9691)
        229          5         29  6.18511223E-03                    1_GWF-(1,26622) -1.03356147E-04                    1_GWF-(1,10651)
        230          5         30  5.92598628E-03                    1_GWF-(1,26649) -1.16402645E-04                    1_GWF-(1,10652)
        231          5         31 -5.15126696E-03                    1_GWF-(1,26350)  1.79333519E-04                     1_GWF-(1,9691)
        232          5         32 -6.19569390E-03                    1_GWF-(1,26422)  1.18428390E-04                     1_GWF-(1,9692)
        233          5         33 -5.56307550E-03                    1_GWF-(1,26350)  1.18228426E-04                     1_GWF-(1,9691)
        234          5         34 -4.86524592E-03                    1_GWF-(1,26422)  9.10188919E-05                    1_GWF-(1,10966)
        235          5         35 -5.45511683E-03                    1_GWF-(1,26588)  1.00548841E-04                    1_GWF-(1,10651)
        236          5         36  5.85076832E-03                    1_GWF-(1,26588)  7.52550216E-05                    1_GWF-(1,11352)
        237          5         37 -7.23868201E-03                    1_GWF-(1,26588)  7.95812831E-05                    1_GWF-(1,11351)
        238          5         38 -5.34538105E-03                    1_GWF-(1,26589)  9.87261355E-05                     1_GWF-(1,9691)
        239          5         39 -5.59258202E-03                    1_GWF-(1,26588) -1.25729892E-04                    1_GWF-(1,10651)
        240          5         40 -5.23185332E-03                    1_GWF-(1,26665)  1.22433002E-04                    1_GWF-(1,10651)
        241          5         41  6.05290201E-03                    1_GWF-(1,26665)  1.19207531E-04                    1_GWF-(1,10652)
        242          5         42  6.16269969E-03                    1_GWF-(1,26666)  1.23469927E-04                    1_GWF-(1,10651)
        243          5         43  6.26057523E-03                    1_GWF-(1,26665)  9.84458557E-05                    1_GWF-(1,10651)
        244          5         44 -3.93087462E-03                    1_GWF-(1,26665)  9.22757667E-05                    1_GWF-(1,10652)
        245          5         45 -2.79751875E-03                    1_GWF-(1,26663)  1.36866260E-04                    1_GWF-(1,10651)
        246          5         46  3.05334188E-03                    1_GWF-(1,11305)  1.02867849E-04                    1_GWF-(1,10652)
        247          5         47  2.58774234E-03                    1_GWF-(1,11414)  1.03158283E-04                    1_GWF-(1,10651)
        248          5         48  2.75345013E-03                    1_GWF-(1,11413) -1.24532670E-04                    1_GWF-(1,10651)
        249          5         49  2.25029755E-03                    1_GWF-(1,26217)  1.44291934E-04                    1_GWF-(1,10651)
        250          5         50 -2.83156422E-03                     1_GWF-(1,8324)  1.18086344E-04                    1_GWF-(1,10652)
        251          6          1 -5.58400516E-03                    1_GWF-(1,11374)  1.04934753E-04                    1_GWF-(1,10651)
        252          6          2 -2.28469024E-03                    1_GWF-(1,11436) -1.12351807E-04                    1_GWF-(1,10651)
        253          6          3 -2.47594807E-03                    1_GWF-(1,26218)  1.32180415E-04                    1_GWF-(1,10651)
        254          6          4 -2.63011732E-03                    1_GWF-(1,11374) -7.73955201E-05                    1_GWF-(1,10651)
        255          6          5 -2.42711056E-03                    1_GWF-(1,26218)  9.08249383E-05                    1_GWF-(1,10651)
        256          6          6 -2.06704414E-03                    1_GWF-(1,26217)  6.33477065E-05                    1_GWF-(1,10652)
        257          6          7  2.00154393E-03                    1_GWF-(1,11316)  6.14950383E-05                    1_GWF-(1,10651)
        258          6          8 -2.71878360E-03                    1_GWF-(1,26665)  3.97275684E-05                    1_GWF-(1,10651)
        259          6          9 -2.74766428E-03                    1_GWF-(1,26666)  5.11202445E-05                    1_GWF-(1,10652)
        260          6         10 -2.76303008E-03                    1_GWF-(1,26665)  4.85982202E-05                    1_GWF-(1,10651)
        261          6         11  1.93428340E-03                    1_GWF-(1,26665) -5.62241675E-05                    1_GWF-(1,10651)
        262          6         12  1.39736376E-03                    1_GWF-(1,26588) -3.68129959E-05                    1_GWF-(1,10652)
        263          6         13  1.54180034E-03                    1_GWF-(1,26589) -1.80386314E-05                     1_GWF-(1,9691)
        264          6         14  2.31351008E-03                    1_GWF-(1,26588) -2.74138342E-05                    1_GWF-(1,10651)
        265          6         15  1.98316970E-03                    1_GWF-(1,26543) -2.24201954E-05                    1_GWF-(1,10632)
        266          6         16  2.06511409E-03                    1_GWF-(1,26588)  2.12961906E-05                    1_GWF-(1,10966)
        267          6         17 -1.17228447E-03                    1_GWF-(1,26420) -2.24300512E-05                    1_GWF-(1,10966)
        268          6         18 -1.20516205E-03                    1_GWF-(1,26422) -2.91662010E-05                    1_GWF-(1,15080)
        269          6         19  1.45106933E-03                    1_GWF-(1,26422) -3.73882011E-05                    1_GWF-(1,10651)
        270          6         20  1.36571530E-03                    1_GWF-(1,26350) -3.08318644E-05                    1_GWF-(1,10652)
        271          6         21 -1.27189950E-03                    1_GWF-(1,26649) -3.40422149E-05                    1_GWF-(1,10651)
        272          6         22 -1.49646843E-03                    1_GWF-(1,26622)  1.39851722E-05                    1_GWF-(1,10864)
        273          6         23 -1.53374855E-03                    1_GWF-(1,26649)  2.51270823E-05                    1_GWF-(1,10651)
        274          6         24 -1.48387078E-03                    1_GWF-(1,26544) -4.38586239E-05                    1_GWF-(1,10651)
        275          6         25 -1.65145589E-03                    1_GWF-(1,26422) -2.99368251E-05                    1_GWF-(1,10652)
        276          6         26 -1.60926620E-03                    1_GWF-(1,26350) -1.81233082E-05                    1_GWF-(1,10653)
        277          6         27 -1.37956238E-03                    1_GWF-(1,26422) -1.57279175E-05                    1_GWF-(1,10654)
        278          6         28  9.63122261E-04                    1_GWF-(1,26486) -1.92537598E-05                    1_GWF-(1,10652)
        279          6         29  9.49478065E-04                    1_GWF-(1,26544) -2.55126869E-05                    1_GWF-(1,10651)
        280          6         30  1.15922306E-03                    1_GWF-(1,26486) -2.46476018E-05                    1_GWF-(1,10652)
        281          6         31  1.14858031E-03                    1_GWF-(1,26217) -4.58865825E-05                    1_GWF-(1,10651)
        282          6         32  1.01229375E-03                    1_GWF-(1,26486)  2.79951294E-05                    1_GWF-(1,10651)
        283          6         33  7.78374532E-04                    1_GWF-(1,26487)  2.55116668E-05                    1_GWF-(1,10652)
        284          6         34  8.15334619E-04                    1_GWF-(1,26486)  1.43139460E-05                     1_GWF-(1,9692)
        285          6         35  7.78492590E-04                    1_GWF-(1,26588)  1.12734748E-05                    1_GWF-(1,10653)
        286          6         36  6.19799928E-04                    1_GWF-(1,26622)  1.90015139E-05                    1_GWF-(1,14801)
        287          6         37  4.99544526E-04                    1_GWF-(1,26623)  2.86208719E-05                    1_GWF-(1,10651)
        288          6         38  6.22657093E-04                    1_GWF-(1,11454)  3.54180056E-05                     1_GWF-(1,9691)
        289          6         39  6.20743655E-04                    1_GWF-(1,11368) -3.68992750E-05                     1_GWF-(1,9691)
        290          6         40  5.28665961E-04                    1_GWF-(1,11378)  5.37715015E-05                     1_GWF-(1,9691)
        291          6         41 -4.95594696E-04                    1_GWF-(1,11378) -5.86083867E-05                     1_GWF-(1,9691)
        292          6         42 -4.59575251E-04                    1_GWF-(1,11450)  7.83587119E-05                     1_GWF-(1,9691)
        293          6         43 -4.62683943E-04                    1_GWF-(1,11368) -8.51628287E-05                     1_GWF-(1,9691)
        294          6         44 -4.45609597E-04                    1_GWF-(1,11378)  9.75302712E-05                     1_GWF-(1,9691)
        295          6         45 -3.61119894E-04                    1_GWF-(1,11373) -9.52467384E-05                     1_GWF-(1,9691)
        296          6         46  4.63299589E-04                    1_GWF-(1,11373)  1.12495237E-04                     1_GWF-(1,9691)
        297          6         47 -4.30190924E-04                    1_GWF-(1,11369) -1.06536196E-04                     1_GWF-(1,9691)
        298          6         48  4.45039716E-04                    1_GWF-(1,11451)  1.06618053E-04                     1_GWF-(1,9691)
        299          6         49  6.92040373E-04                    1_GWF-(1,11369) -6.76846114E-05                     1_GWF-(1,9691)
        300          6         50  9.36831227E-04                    1_GWF-(1,11378)  8.72884826E-05                     1_GWF-(1,9691)
        301          7          1 -1.03613385E-03                    1_GWF-(1,11378) -6.78634017E-05                     1_GWF-(1,9691)
        302          7          2 -6.28361913E-04                    1_GWF-(1,11369)  8.91758878E-05                     1_GWF-(1,9691)
        303          7          3 -4.51827267E-04                    1_GWF-(1,11451) -8.59102736E-05                     1_GWF-(1,9691)
        304          7          4  3.20453031E-04                    1_GWF-(1,11369)  8.79708872E-05                     1_GWF-(1,9691)
        305          7          5 -3.87788401E-04                    1_GWF-(1,11373) -6.94596326E-05                     1_GWF-(1,9691)
        306          7          6  3.51579653E-04                    1_GWF-(1,11373)  6.61546730E-05                     1_GWF-(1,9691)
        307          7          7  2.86720033E-04                    1_GWF-(1,11378) -5.51559224E-05                     1_GWF-(1,9691)
        308          7          8  2.59763523E-04                    1_GWF-(1,11368)  5.09645598E-05                     1_GWF-(1,9691)
        309          7          9  2.53882577E-04                    1_GWF-(1,11373) -3.67844688E-05                     1_GWF-(1,9691)
        310          7         10 -2.25159428E-04                    1_GWF-(1,11373)  3.08916228E-05                     1_GWF-(1,9691)
        311          7         11 -2.89777804E-04                    1_GWF-(1,11378)  1.94094280E-05                     1_GWF-(1,9692)
        312          7         12 -2.67034938E-04                    1_GWF-(1,11368)  1.77737876E-05                     1_GWF-(1,9691)
        313          7         13 -2.43256887E-04                    1_GWF-(1,11451)  8.62578208E-06                    1_GWF-(1,10651)
        314          7         14 -2.99301128E-04                    1_GWF-(1,26588)  4.29851968E-06                    1_GWF-(1,10654)
        315          7         15 -3.98486055E-04                    1_GWF-(1,26649)  1.15904215E-05                     1_GWF-(1,9691)
        316          7         16  2.71328206E-04                    1_GWF-(1,26649)  9.92997985E-06                     1_GWF-(1,9692)
        317          7         17  2.15296444E-04                    1_GWF-(1,11454)  9.46452364E-06                     1_GWF-(1,9691)
        318          7         18 -2.34175023E-04                    1_GWF-(1,26487)  9.13098221E-06                    1_GWF-(1,10653)
        319          7         19 -3.14903568E-04                    1_GWF-(1,26486) -7.55520728E-06                    1_GWF-(1,10653)
        320          7         20 -3.91839657E-04                    1_GWF-(1,26487)  5.63166047E-06                     1_GWF-(1,9691)
        321          7         21 -3.46773601E-04                    1_GWF-(1,26420)  6.30620133E-06                     1_GWF-(1,9692)
        322          7         22 -2.57623550E-04                    1_GWF-(1,26487) -8.36473412E-06                    1_GWF-(1,10653)
        323          7         23 -1.75546386E-04                    1_GWF-(1,26420) -6.33299538E-06                    1_GWF-(1,10654)
        324          7         24  1.85107173E-04                    1_GWF-(1,26420) -6.48914339E-06                    1_GWF-(1,10653)
        325          7         25  2.07065378E-04                    1_GWF-(1,26421)  3.35635913E-06                    1_GWF-(1,10653)
        326          7         26  1.64569489E-04                    1_GWF-(1,26420)  3.17839503E-06                    1_GWF-(1,10958)
        327          7         27  2.24459430E-04                    1_GWF-(1,26486)  3.72371380E-06                    1_GWF-(1,10966)
        328          7         28  1.98778319E-04                    1_GWF-(1,26544)  3.07824253E-06                     1_GWF-(1,9692)
        329          7         29  2.13877006E-04                    1_GWF-(1,26486) -3.88206275E-06                    1_GWF-(1,10653)
        330          7         30  1.98942939E-04                    1_GWF-(1,26623) -1.97613250E-06                    1_GWF-(1,10629)
        331          7         31  1.87488746E-04                    1_GWF-(1,26586)  3.50518553E-06                    1_GWF-(1,10961)
        332          7         32  1.78155992E-04                    1_GWF-(1,26588) -4.28424236E-06                    1_GWF-(1,10653)
        333          7         33 -1.69403977E-04                    1_GWF-(1,26422)  4.07026935E-06                    1_GWF-(1,10653)
        334          7         34  1.74163804E-04                    1_GWF-(1,26422)  3.65361754E-06                    1_GWF-(1,10654)
        335          7         35  1.74276367E-04                    1_GWF-(1,26350)  3.21910461E-06                     1_GWF-(1,9692)
        336          7         36  1.52006363E-04                    1_GWF-(1,26422)  2.47160764E-06                     1_GWF-(1,9691)
        337          7         37 -1.25522489E-04                    1_GWF-(1,26665) -2.16381882E-06                    1_GWF-(1,10961)
        338          7         38 -1.32758793E-04                    1_GWF-(1,26623)  1.81079555E-06                    1_GWF-(1,11053)
        339          7         39 -1.58752415E-04                    1_GWF-(1,26665) -3.12603237E-06                    1_GWF-(1,10653)
        340          7         40  1.38278536E-04                    1_GWF-(1,26665)  2.33904884E-06                    1_GWF-(1,10653)
        341          7         41 -1.32737018E-04                    1_GWF-(1,26350)  3.06504252E-06                     1_GWF-(1,9691)
        342          7         42 -1.37603002E-04                    1_GWF-(1,26422)  2.37488389E-06                     1_GWF-(1,9692)
        343          7         43 -1.23653362E-04                    1_GWF-(1,26350)  3.22621364E-06                    1_GWF-(1,10653)
        344          7         44 -1.06996263E-04                    1_GWF-(1,26422)  2.92426841E-06                    1_GWF-(1,10654)
        345          7         45  7.18966371E-05                    1_GWF-(1,26217)  4.18868484E-06                    1_GWF-(1,10653)
        346          7         46  8.00086975E-05                    1_GWF-(1,26218) -3.15715588E-06                    1_GWF-(1,10653)
        347          7         47  8.54001313E-05                    1_GWF-(1,26422)  3.99726025E-06                    1_GWF-(1,10653)
        348          7         48  8.64906758E-05                    1_GWF-(1,26218) -3.59129820E-06                    1_GWF-(1,10653)
        349          7         49  6.79666311E-05                    1_GWF-(1,26217)  4.65512642E-06                    1_GWF-(1,10653)
        350          7         50  1.00111364E-04                    1_GWF-(1,11374) -4.39782699E-06                    1_GWF-(1,10653)
        351          8          1 -9.74159593E-05                    1_GWF-(1,11374)  4.43189920E-06                    1_GWF-(1,10653)
        352          8          2 -6.57504410E-05                    1_GWF-(1,11436)  3.42301368E-06                    1_GWF-(1,10654)
        353          8          3 -7.92549571E-05                    1_GWF-(1,26218)  3.87475993E-06                    1_GWF-(1,10653)
        354          8          4 -7.30001502E-05                    1_GWF-(1,26217) -3.19218281E-06                    1_GWF-(1,10653)
        355          8          5 -6.89027171E-05                    1_GWF-(1,26218)  3.47135052E-06                    1_GWF-(1,10653)
        356          8          6 -5.28091751E-05                    1_GWF-(1,26217)  2.04141152E-06                    1_GWF-(1,10654)
        357          8          7  6.64450969E-05                    1_GWF-(1,26422)  1.77281767E-06                    1_GWF-(1,10653)
        358          8          8  7.77201398E-05                    1_GWF-(1,26420)  1.21477891E-06                    1_GWF-(1,10651)
        359          8          9  9.94756738E-05                    1_GWF-(1,26487)  1.26344762E-06                    1_GWF-(1,10658)
        360          8         10  8.15412318E-05                    1_GWF-(1,26486)  1.19284780E-06                    1_GWF-(1,10653)
        361          8         11  5.81804990E-05                    1_GWF-(1,26487) -9.67122700E-07                    1_GWF-(1,10653)
        362          8         12  4.73227423E-05                    1_GWF-(1,26486)  8.27235658E-07                     1_GWF-(1,9691)
        363          8         13  4.78006738E-05                    1_GWF-(1,26665) -7.25653729E-07                    1_GWF-(1,10654)
        364          8         14  5.21030001E-05                    1_GWF-(1,26666) -1.40241092E-06                    1_GWF-(1,10653)
        365          8         15  6.67817176E-05                    1_GWF-(1,26665)  7.69150587E-07                    1_GWF-(1,10653)
        366          8         16 -4.77037385E-05                    1_GWF-(1,26665)  7.24048116E-07                    1_GWF-(1,10966)
        367          8         17  4.70220525E-05                    1_GWF-(1,26649) -8.17265636E-07                    1_GWF-(1,10966)
        368          8         18 -6.12002420E-05                    1_GWF-(1,26649)  8.07011784E-07                    1_GWF-(1,10653)
        369          8         19 -7.28052821E-05                    1_GWF-(1,26622) -8.40448366E-07                    1_GWF-(1,10653)
        370          8         20 -6.68366360E-05                    1_GWF-(1,26623)  9.07786278E-07                    1_GWF-(1,10961)
        371          8         21 -5.78065301E-05                    1_GWF-(1,26622)  5.72279793E-07                    1_GWF-(1,11044)
        372          8         22 -4.30420444E-05                    1_GWF-(1,26623) -8.86095420E-07                    1_GWF-(1,10653)
        373          8         23 -3.61730432E-05                    1_GWF-(1,26422) -1.05442995E-06                    1_GWF-(1,10654)
        374          8         24 -4.68882632E-05                    1_GWF-(1,26350) -1.35303134E-06                    1_GWF-(1,10653)
        375          8         25 -4.68545067E-05                    1_GWF-(1,26422)  7.75330725E-07                    1_GWF-(1,10653)
        376          8         26  3.91228282E-05                    1_GWF-(1,26588)  5.53102403E-07                    1_GWF-(1,10966)
        377          8         27  3.86894340E-05                    1_GWF-(1,26589) -6.22836618E-07                    1_GWF-(1,10653)
        378          8         28  4.62727433E-05                    1_GWF-(1,26588) -6.38666094E-07                    1_GWF-(1,10658)
        379          8         29  3.17146768E-05                    1_GWF-(1,26543) -7.37652971E-07                    1_GWF-(1,10653)
        380          8         30  3.97270843E-05                    1_GWF-(1,26420) -5.94713837E-07                    1_GWF-(1,10654)
        381          8         31  4.20519349E-05                    1_GWF-(1,26421)  4.22839091E-07                     1_GWF-(1,9691)
        382          8         32  3.63886279E-05                    1_GWF-(1,26420) -5.29286203E-07                    1_GWF-(1,10651)
        383          8         33  2.92949832E-05                    1_GWF-(1,26421)  8.95212776E-07                    1_GWF-(1,10651)
        384          8         34  1.86820555E-05                    1_GWF-(1,26420) -8.46013009E-07                    1_GWF-(1,10653)
        385          8         35 -1.88254811E-05                    1_GWF-(1,11369)  1.02879250E-06                    1_GWF-(1,10653)
        386          8         36 -1.64182255E-05                    1_GWF-(1,11378)  8.36075606E-07                     1_GWF-(1,9691)
        387          8         37 -1.60589466E-05                    1_GWF-(1,26217)  8.49199171E-07                    1_GWF-(1,10653)
        388          8         38  1.88042580E-05                    1_GWF-(1,11451)  1.18766513E-06                     1_GWF-(1,9691)
        389          8         39  1.47205103E-05                    1_GWF-(1,11368)  1.18028294E-06                     1_GWF-(1,9692)
        390          8         40  1.33584770E-05                    1_GWF-(1,11378)  1.76300991E-06                     1_GWF-(1,9691)
        391          8         41 -1.39632602E-05                    1_GWF-(1,11378) -1.95224037E-06                     1_GWF-(1,9691)
        392          8         42 -1.25732696E-05                    1_GWF-(1,11373)  2.53038252E-06                     1_GWF-(1,9691)
        393          8         43 -1.60830820E-05                    1_GWF-(1,26623) -2.35698837E-06                     1_GWF-(1,9691)
        394          8         44 -1.96787014E-05                    1_GWF-(1,26622)  1.72826456E-06                     1_GWF-(1,9691)
        395          8         45 -2.00383799E-05                    1_GWF-(1,26649)  3.02286770E-07                    1_GWF-(1,10654)
        396          8         46  1.83082710E-05                    1_GWF-(1,26649)  1.36590382E-06                     1_GWF-(1,9692)
        397          8         47 -1.40420783E-05                    1_GWF-(1,11454)  2.55088424E-06                     1_GWF-(1,9691)
        398          8         48 -1.66013129E-05                    1_GWF-(1,11373) -2.89600748E-06                     1_GWF-(1,9691)
        399          8         49  1.53432294E-05                    1_GWF-(1,11369)  3.06071698E-06                     1_GWF-(1,9691)
        400          8         50  2.63875735E-05                    1_GWF-(1,11378) -3.02070554E-06                     1_GWF-(1,9691)
        401          9          1 -1.74313294E-05                    1_GWF-(1,11378)  4.34829196E-06                     1_GWF-(1,9691)
        402          9          2  1.20354103E-05                    1_GWF-(1,26487) -2.59676166E-06                     1_GWF-(1,9691)
        403          9          3  1.49058648E-05                    1_GWF-(1,11378)  4.23420658E-07                     1_GWF-(1,9691)
        404          9          4  1.74523315E-05                    1_GWF-(1,26487)  2.02891692E-06                     1_GWF-(1,9691)
        405          9          5  1.52834788E-05                    1_GWF-(1,26486) -2.32571568E-06                     1_GWF-(1,9691)
        406          9          6  9.88048485E-06                    1_GWF-(1,26487)  2.28220374E-06                     1_GWF-(1,9691)
        407          9          7 -7.39697900E-06                    1_GWF-(1,23325) -2.03715756E-06                     1_GWF-(1,9691)
        408          9          8 -9.05955097E-06                     1_GWF-(1,8106)  1.82485032E-06                     1_GWF-(1,9691)
        409          9          9  1.03067823E-05                    1_GWF-(1,26622) -1.03183070E-06                     1_GWF-(1,9691)
        410          9         10  1.41386769E-05                    1_GWF-(1,26649) -2.12711224E-07                    1_GWF-(1,10653)
        411          9         11  1.61866105E-05                    1_GWF-(1,26622)  8.23128349E-07                     1_GWF-(1,9691)
        412          9         12 -1.30827388E-05                    1_GWF-(1,26622)  9.72968752E-07                     1_GWF-(1,9692)
        413          9         13 -9.60895787E-06                    1_GWF-(1,26623)  1.07030307E-06                     1_GWF-(1,9691)
        414          9         14 -7.82102812E-06                    1_GWF-(1,26622) -6.81268328E-07                     1_GWF-(1,9691)
        415          9         15 -5.49712655E-06                    1_GWF-(1,26623)  5.85010132E-07                     1_GWF-(1,9691)
        416          9         16 -7.23643215E-06                    1_GWF-(1,26665)  3.24609760E-07                     1_GWF-(1,9692)
        417          9         17 -8.83312951E-06                    1_GWF-(1,26666)  2.05364612E-07                    1_GWF-(1,10652)
        418          9         18 -1.13722803E-05                    1_GWF-(1,26665)  2.30672124E-07                     1_GWF-(1,9691)
        419          9         19  1.16447929E-05                    1_GWF-(1,26665)  3.52109760E-07                     1_GWF-(1,9692)
        420          9         20  7.57555788E-06                    1_GWF-(1,26666)  4.52376323E-07                     1_GWF-(1,9691)
        421          9         21 -8.26441542E-06                    1_GWF-(1,26420) -2.77394737E-07                    1_GWF-(1,10654)
        422          9         22 -6.64664882E-06                    1_GWF-(1,26421) -2.81457722E-07                    1_GWF-(1,10651)
        423          9         23 -7.50764639E-06                    1_GWF-(1,26588) -1.58995943E-07                    1_GWF-(1,10632)
        424          9         24 -8.04918809E-06                    1_GWF-(1,26543) -1.02975383E-07                    1_GWF-(1,11202)
        425          9         25 -7.49476083E-06                    1_GWF-(1,26665)  2.17383808E-07                     1_GWF-(1,9691)
        426          9         26  5.77499118E-06                    1_GWF-(1,26350)  1.87509485E-07                     1_GWF-(1,9692)
        427          9         27  5.05466505E-06                    1_GWF-(1,26217) -2.47302358E-07                    1_GWF-(1,10653)
        428          9         28  4.55926682E-06                    1_GWF-(1,26218)  2.08061707E-07                    1_GWF-(1,10653)
        429          9         29  3.80547601E-06                    1_GWF-(1,25467) -1.97565267E-07                    1_GWF-(1,10653)
        430          9         30 -4.16408832E-06                    1_GWF-(1,26217) -1.01154538E-07                    1_GWF-(1,10654)
        431          9         31 -4.23543079E-06                    1_GWF-(1,26218)  8.45655243E-08                     1_GWF-(1,9691)
        432          9         32  4.43827409E-06                    1_GWF-(1,26486)  9.43135385E-08                    1_GWF-(1,11058)
        433          9         33  6.04874161E-06                    1_GWF-(1,26649) -9.09051617E-08                    1_GWF-(1,10966)
        434          9         34 -5.66670768E-06                    1_GWF-(1,26649) -1.05221573E-07                    1_GWF-(1,10650)
        435          9         35 -6.87480490E-06                    1_GWF-(1,26622)  8.21404179E-08                    1_GWF-(1,10653)
        436          9         36 -6.45127194E-06                    1_GWF-(1,26623)  7.34371589E-08                    1_GWF-(1,11197)
        437          9         37 -4.92943702E-06                    1_GWF-(1,26622) -1.12067303E-07                    1_GWF-(1,10653)
        438          9         38  4.67034558E-06                    1_GWF-(1,26350)  1.37487654E-07                    1_GWF-(1,10653)
        439          9         39 -5.07082869E-06                    1_GWF-(1,26350) -1.55742849E-07                    1_GWF-(1,10653)
        440          9         40 -5.94202531E-06                    1_GWF-(1,26422)  1.01459577E-07                    1_GWF-(1,10653)
        441          9         41 -5.47535806E-06                    1_GWF-(1,26350)  9.81267533E-08                     1_GWF-(1,9691)
        442          9         42 -4.86856760E-06                    1_GWF-(1,26422)  7.57167975E-08                     1_GWF-(1,9692)
        443          9         43 -4.81979265E-06                    1_GWF-(1,26486)  1.03346280E-07                    1_GWF-(1,10653)
        444          9         44  5.83302147E-06                    1_GWF-(1,26486)  7.71586428E-08                    1_GWF-(1,10658)
        445          9         45 -4.81330739E-06                    1_GWF-(1,26486)  5.17550321E-08                    1_GWF-(1,10653)
        446          9         46  2.91956432E-06                    1_GWF-(1,26486)  6.01157245E-08                     1_GWF-(1,9691)
        447          9         47  3.35788099E-06                    1_GWF-(1,26350) -6.76484448E-08                    1_GWF-(1,10653)
        448          9         48  3.32436068E-06                    1_GWF-(1,26422)  1.22602662E-07                    1_GWF-(1,10653)
        449          9         49  3.16597946E-06                    1_GWF-(1,26218) -1.26373574E-07                    1_GWF-(1,10653)
        450          9         50  2.47661667E-06                    1_GWF-(1,26217)  1.85429834E-07                    1_GWF-(1,10653)
        451         10          1 -2.98006484E-06                    1_GWF-(1,26217) -2.33225614E-07                    1_GWF-(1,10653)
        452         10          2 -3.53282215E-06                    1_GWF-(1,26218)  1.50988559E-07                    1_GWF-(1,10653)
        453         10          3 -3.20503720E-06                    1_GWF-(1,26422) -6.62916517E-08                    1_GWF-(1,10653)
        454         10          4 -2.77955760E-06                    1_GWF-(1,26350) -3.56251910E-08                    1_GWF-(1,11202)
        455         10          5  3.15279760E-06                    1_GWF-(1,26588)  6.81426751E-08                    1_GWF-(1,10653)
        456         10          6 -2.76530566E-06                    1_GWF-(1,26588)  9.08098674E-08                    1_GWF-(1,10654)
        457         10          7 -2.17251395E-06                    1_GWF-(1,26649)  1.06175176E-07                    1_GWF-(1,10653)
        458         10          8  2.30794524E-06                    1_GWF-(1,26218)  5.35498933E-08                    1_GWF-(1,10629)
        459         10          9  2.17303952E-06                    1_GWF-(1,26217)  3.42275936E-08                    1_GWF-(1,11197)
        460         10         10  2.16063064E-06                    1_GWF-(1,26350)  4.64063467E-08                    1_GWF-(1,10653)
        461         10         11 -2.09453363E-06                    1_GWF-(1,26665) -5.87768238E-08                    1_GWF-(1,10653)
        462         10         12  2.12995778E-06                    1_GWF-(1,26588) -3.47025522E-08                    1_GWF-(1,11196)
        463         10         13  1.92260404E-06                    1_GWF-(1,26589)  2.64340987E-08                    1_GWF-(1,11050)
        464         10         14  2.15351716E-06                    1_GWF-(1,26623) -6.21726440E-08                    1_GWF-(1,10653)
        465         10         15 -2.10571828E-06                    1_GWF-(1,26422) -3.82467185E-08                    1_GWF-(1,10654)
        466         10         16  1.96665700E-06                    1_GWF-(1,26623) -3.59655566E-08                    1_GWF-(1,10650)
        467         10         17 -1.62051539E-06                    1_GWF-(1,26666) -2.89420682E-08                    1_GWF-(1,11197)
        468         10         18 -1.68144457E-06                    1_GWF-(1,26665) -2.93395952E-08                    1_GWF-(1,10658)
        469         10         19 -1.60423561E-06                    1_GWF-(1,26487) -3.25000350E-08                    1_GWF-(1,10653)
        470         10         20 -2.16853171E-06                    1_GWF-(1,26486)  2.70437270E-08                    1_GWF-(1,10653)
        471         10         21  1.92859509E-06                    1_GWF-(1,26486) -2.10248328E-08                    1_GWF-(1,10651)
        472         10         22 -1.72352382E-06                    1_GWF-(1,26486) -2.45247157E-08                    1_GWF-(1,10653)
        473         10         23 -1.17699815E-06                    1_GWF-(1,26487)  3.63044146E-08                    1_GWF-(1,10653)
        474         10         24 -1.44824806E-06                    1_GWF-(1,26350) -4.34402350E-08                    1_GWF-(1,10651)
        475         10         25 -1.76633514E-06                    1_GWF-(1,26422) -2.79816825E-08                    1_GWF-(1,10632)
        476         10         26 -1.62639257E-06                    1_GWF-(1,26350) -2.84968052E-08                    1_GWF-(1,11197)
        477         10         27 -1.26689582E-06                    1_GWF-(1,26422)  2.25718372E-08                    1_GWF-(1,11052)
        478         10         28  1.00180323E-06                    1_GWF-(1,26486)  2.02987519E-08                    1_GWF-(1,15187)
        479         10         29  8.33679000E-07                    1_GWF-(1,26544) -2.93531117E-08                    1_GWF-(1,10650)
        480         11          1  9.19319538E-07                    1_GWF-(1,26486) -2.44771101E-08                    1_GWF-(1,10654)
 --------------------------------------------------------------------------------------------------------------------------------------


 UBDSV1 SAVING     FLOW-JA-FACE ON UNIT   1020 AT TIME STEP      1, STRESS PERIOD      1
 UBDSV06 SAVING       DATA-SPDIS IN MODEL ML               PACKAGE NPF             CONNECTED TO MODEL ML               PACKAGE NPF              ON UNIT   1020 AT TIME STEP      1, STRESS PERIOD      1
 UBDSV06 SAVING              WEL IN MODEL ML               PACKAGE ML              CONNECTED TO MODEL ML               PACKAGE WEL_0            ON UNIT   1020 AT TIME STEP      1, STRESS PERIOD      1
 UBDSV06 SAVING              DRN IN MODEL ML               PACKAGE ML              CONNECTED TO MODEL ML               PACKAGE DRN_0            ON UNIT   1020 AT TIME STEP      1, STRESS PERIOD      1
 UBDSV06 SAVING              RIV IN MODEL ML               PACKAGE ML              CONNECTED TO MODEL ML               PACKAGE RIV_0            ON UNIT   1020 AT TIME STEP      1, STRESS PERIOD      1
 UBDSV06 SAVING              GHB IN MODEL ML               PACKAGE ML              CONNECTED TO MODEL ML               PACKAGE GHB_0            ON UNIT   1020 AT TIME STEP      1, STRESS PERIOD      1
 UBDSV06 SAVING              RCH IN MODEL ML               PACKAGE ML              CONNECTED TO MODEL ML               PACKAGE RCHA_0           ON UNIT   1020 AT TIME STEP      1, STRESS PERIOD      1

 HEAD WILL BE SAVED ON UNIT 1021 AT END OF TIME STEP    1, STRESS PERIOD    1


  VOLUME BUDGET FOR ENTIRE MODEL AT END OF TIME STEP    1, STRESS PERIOD   1
  ---------------------------------------------------------------------------------------------------

     CUMULATIVE VOLUME      L**3       RATES FOR THIS TIME STEP      L**3/T          PACKAGE NAME    
     ------------------                 ------------------------                     ----------------

           IN:                                      IN:
           ---                                      ---
                 WEL =           0.0000                   WEL =           0.0000     WEL_0           
                 DRN =           0.0000                   DRN =           0.0000     DRN_0           
                 RIV =           6.2354                   RIV =           1.0392     RIV_0           
                 GHB =           9.6638                   GHB =           1.6106     GHB_0           
                 RCH =           2.9749                   RCH =           0.4958     RCHA_0          

            TOTAL IN =          18.8740              TOTAL IN =           3.1457

          OUT:                                     OUT:
          ----                                     ----
                 WEL =           1.2210                   WEL =           0.2035     WEL_0           
                 DRN =           1.0895                   DRN =           0.1816     DRN_0           
                 RIV =          16.3412                   RIV =           2.7235     RIV_0           
                 GHB =           0.2224                   GHB =       3.7061E-02     GHB_0           
                 RCH =           0.0000                   RCH =           0.0000     RCHA_0          

           TOTAL OUT =          18.8740             TOTAL OUT =           3.1457

            IN - OUT =      -1.1794E-05              IN - OUT =      -1.9656E-06

 PERCENT DISCREPANCY =          -0.00     PERCENT DISCREPANCY =          -0.00




         TIME SUMMARY AT END OF TIME STEP    1 IN STRESS PERIOD    1
                    SECONDS     MINUTES      HOURS       DAYS        YEARS
                    -----------------------------------------------------------
   TIME STEP LENGTH  6.0000     0.10000     1.66667E-03 6.94444E-05 1.90129E-07
 STRESS PERIOD TIME  6.0000     0.10000     1.66667E-03 6.94444E-05 1.90129E-07
         TOTAL TIME  6.0000     0.10000     1.66667E-03 6.94444E-05 1.90129E-07


end timestep

