                                   MODFLOW 6
                U.S. GEOLOGICAL SURVEY MODULAR HYDROLOGIC MODEL
                            VERSION 6.2.2 07/30/2021

   MODFLOW 6 compiled Jul 31 2021 14:22:53 with IFORT compiler (ver. 19.10.3)

This software has been approved for release by the U.S. Geological 
Survey (USGS). Although the software has been subjected to rigorous 
review, the USGS reserves the right to update the software as needed 
pursuant to further analysis and review. No warranty, expressed or 
implied, is made by the USGS or the U.S. Government as to the 
functionality of the software and related material nor shall the 
fact of release constitute any such warranty. Furthermore, the 
software is released on condition that neither the USGS nor the U.S. 
Government shall be held liable for any damages resulting from its 
authorized or unauthorized use. Also refer to the USGS Water 
Resources Software User Rights Notice for complete use, copyright, 
and distribution information.


System command used to initiate simulation:
mf6

MODFLOW was compiled using uniform precision.

Real Variables
  KIND: 8
  TINY (smallest non-zero value):    2.225074-308
  HUGE (largest value):    1.797693+308
  PRECISION: 15
  BIT SIZE: 64

Integer Variables
  KIND: 4
  HUGE (largest value): 2147483647
  BIT SIZE: 32

Long Integer Variables
  KIND: 8
  HUGE (largest value): 9223372036854775807
  BIT SIZE: 64

Logical Variables
  KIND: 4
  BIT SIZE: 32
 

 OPENED mfsim.nam
 FILE TYPE:NAM   UNIT 1001   STATUS:OLD                 
 FORMAT:FORMATTED              ACCESS:SEQUENTIAL          
 ACTION:READ                

 # File generated by Flopy version 3.3.5 on 04/28/2022 at 15:59:24.

 READING SIMULATION OPTIONS
 END OF SIMULATION OPTIONS

 READING SIMULATION TIMING

 OPENED mfsim.tdis
 FILE TYPE:TDIS   UNIT 1002   STATUS:OLD                 
 FORMAT:FORMATTED              ACCESS:SEQUENTIAL          
 ACTION:READ                


 TDIS -- TEMPORAL DISCRETIZATION PACKAGE,
 VERSION 1 : 11/13/2014 - INPUT READ FROM UNIT 1002
 # File generated by Flopy version 3.3.5 on 04/28/2022 at 15:59:24.
 PROCESSING TDIS OPTIONS
    SIMULATION TIME UNIT IS SECONDS
 END OF TDIS OPTIONS
 PROCESSING TDIS DIMENSIONS
    1 STRESS PERIOD(S) IN SIMULATION
 END OF TDIS DIMENSIONS
 PROCESSING TDIS PERIODDATA


 STRESS PERIOD     LENGTH       TIME STEPS     MULTIPLIER FOR DELT
 ----------------------------------------------------------------------------
        1         8.000000          1                    1.000
 END OF TDIS PERIODDATA
 END OF SIMULATION TIMING

 READING SIMULATION MODELS
    GWF6 model ML will be created as model 1
 END OF SIMULATION MODELS

 READING SIMULATION EXCHANGES
 END OF SIMULATION EXCHANGES

 READING SOLUTIONGROUP

 Creating solution: SLN_1           

 OPENED mfsim.ims
 FILE TYPE:IMS   UNIT 1015   STATUS:OLD                 
 FORMAT:FORMATTED              ACCESS:SEQUENTIAL          
 ACTION:READ                

 END OF SIMULATION SOLUTIONGROUP

 IMS -- ITERATIVE MODEL SOLUTION PACKAGE, VERSION 6, 4/28/2017
         INPUT READ FROM UNIT 1015
 # File generated by Flopy version 3.3.5 on 04/28/2022 at 15:59:24.

 PROCESSING IMS OPTIONS
 END OF IMS OPTIONS

 PROCESSING IMS NONLINEAR
 END OF IMS NONLINEAR DATA
 ***UNDER-RELAXATION WILL NOT BE USED***
 
 ***IMS LINEAR SOLVER WILL BE USED***

 IMSLINEAR -- UNSTRUCTURED LINEAR SOLUTION PACKAGE, VERSION 8, 04/28/2017

 PROCESSING LINEAR DATA
 END OF LINEAR DATA
 
 OUTER ITERATION CONVERGENCE CRITERION    (DVCLOSE) =    0.100000E-04
 MAXIMUM NUMBER OF OUTER ITERATIONS        (MXITER) = 100
 SOLVER PRINTOUT INDEX                     (IPRIMS) = 2
 NONLINEAR ITERATION METHOD            (NONLINMETH) = 0
 LINEAR SOLUTION METHOD                   (LINMETH) = 1

       SOLUTION BY THE        CONJUGATE-GRADIENT       METHOD
 ------------------------------------------------------------------
 MAXIMUM OF 100 CALLS OF SOLUTION ROUTINE
 MAXIMUM OF 50 INTERNAL ITERATIONS PER CALL TO SOLUTION ROUTINE
 LINEAR ACCELERATION METHOD            = CG        
 MATRIX PRECONDITIONING TYPE           = INCOMPLETE LU       
 MATRIX SCALING APPROACH               = NO SCALING          
 MATRIX REORDERING APPROACH            = ORIGINAL ORDERING        
 NUMBER OF ORTHOGONALIZATIONS          = 0
 HEAD CHANGE CRITERION FOR CLOSURE     =    0.10000E-05
 RESIDUAL CHANGE CRITERION FOR CLOSURE =    0.10000E-04
 RESIDUAL CONVERGENCE OPTION           = 1
 RESIDUAL CONVERGENCE NORM             = INFINITY NORM S 
 RELAXATION FACTOR                     =    0.00000E+00



 
    Solving:  Stress period:     1    Time step:     1
 
1
                            STRESS PERIOD NO. 1, LENGTH =   8.000000    
                            -----------------------------------------------
                            NUMBER OF TIME STEPS = 1
                            MULTIPLIER FOR DELT =     1.000
                            INITIAL TIME STEP SIZE =   8.000000    

 SLN_1 OUTER ITERATION SUMMARY
 ----------------------------------------------------------------------------------------------------------
                                OUTER      INNER                    STEP   MAXIMUM CHANGE MODEL-(CELLID) OR
 OUTER ITERATION STEP       ITERATION  ITERATION  MAXIMUM CHANGE SUCCESS             MODEL-PACKAGE-(NUMBER)
 ----------------------------------------------------------------------------------------------------------
 Model                              1         50       41.137288                            1_GWF-(1,26519)
 Model                              2         50      -36.227077                            1_GWF-(1,26519)
 Model                              3         50      0.28507394                            1_GWF-(1,24079)
 Model                              4         50 -6.43723784E-02                            1_GWF-(1,21415)
 Model                              5         50 -8.55042492E-03                            1_GWF-(1,11378)
 Model                              6         50 -8.32933748E-04                            1_GWF-(1,21452)
 Model                              7         49 -3.53333029E-05                             1_GWF-(1,8198)
 Model                              8          1 -3.61229109E-07       *                    1_GWF-(1,26649)
 ----------------------------------------------------------------------------------------------------------


 8 CALLS TO NUMERICAL SOLUTION IN TIME STEP 1 STRESS PERIOD 1
 350 TOTAL ITERATIONS

 SLN_1 INNER ITERATION SUMMARY
 --------------------------------------------------------------------------------------------------------------------------------------
      TOTAL      OUTER      INNER                                                            MAXIMUM                                   
  ITERATION  ITERATION  ITERATION  MAXIMUM CHANGE      MAXIMUM CHANGE MODEL-(CELLID)        RESIDUAL    MAXIMUM RESIDUAL MODEL-(CELLID)
 --------------------------------------------------------------------------------------------------------------------------------------
          1          1          1      -11.826433                    1_GWF-(1,12785)      0.66548998                    1_GWF-(1,11179)
          2          1          2       7.9469266                    1_GWF-(1,26564)     -0.36532005                    1_GWF-(1,11175)
          3          1          3       8.5847263                    1_GWF-(1,26565)     -0.32932489                    1_GWF-(1,11178)
          4          1          4       8.3175332                    1_GWF-(1,26564)      0.32159156                    1_GWF-(1,11180)
          5          1          5       8.5399010                    1_GWF-(1,26611)      0.29400279                    1_GWF-(1,11157)
          6          1          6       9.1851843                    1_GWF-(1,26649)      0.22740589                    1_GWF-(1,11158)
          7          1          7       9.2750706                    1_GWF-(1,26622)     -0.25777798                    1_GWF-(1,11208)
          8          1          8       7.4133222                    1_GWF-(1,26665)      0.14910656                    1_GWF-(1,10961)
          9          1          9      -5.6879777                    1_GWF-(1,26665)      0.15050040                    1_GWF-(1,11158)
         10          1         10      -5.6613924                    1_GWF-(1,26666)      0.15595040                    1_GWF-(1,11207)
         11          1         11      -5.3129247                    1_GWF-(1,26665)     -0.14587080                    1_GWF-(1,11207)
         12          1         12      -5.1021089                    1_GWF-(1,26622)      0.10902136                    1_GWF-(1,11059)
         13          1         13      -6.0103110                    1_GWF-(1,26649)  9.19082388E-02                    1_GWF-(1,11052)
         14          1         14      -4.9006762                    1_GWF-(1,26622)  8.47688748E-02                    1_GWF-(1,11050)
         15          1         15      -3.9021760                    1_GWF-(1,26623)  8.27235501E-02                    1_GWF-(1,11017)
         16          1         16      -3.0403955                    1_GWF-(1,26622)  8.16970375E-02                    1_GWF-(1,11058)
         17          1         17      -3.5692842                    1_GWF-(1,26588)      0.10974884                    1_GWF-(1,10873)
         18          1         18      -4.6587532                    1_GWF-(1,26543)     -0.10134408                    1_GWF-(1,11152)
         19          1         19      -6.1587170                    1_GWF-(1,26588)  8.52753342E-02                    1_GWF-(1,11194)
         20          1         20      -4.9872390                    1_GWF-(1,26543)  8.80054334E-02                    1_GWF-(1,11151)
         21          1         21      -3.5794321                    1_GWF-(1,26544) -8.21057151E-02                    1_GWF-(1,11152)
         22          1         22      -3.8753121                    1_GWF-(1,26486) -8.93757947E-02                    1_GWF-(1,11151)
         23          1         23      -3.7373815                    1_GWF-(1,26487)  7.63427394E-02                    1_GWF-(1,11151)
         24          1         24       3.5174924                    1_GWF-(1,26487)  6.63362256E-02                    1_GWF-(1,11108)
         25          1         25       4.6257719                    1_GWF-(1,26420) -6.70088597E-02                    1_GWF-(1,11151)
         26          1         26       4.8449411                    1_GWF-(1,26487) -7.94589523E-02                    1_GWF-(1,11108)
         27          1         27       4.0589387                    1_GWF-(1,26420)  6.59752798E-02                    1_GWF-(1,11108)
         28          1         28       2.9464510                    1_GWF-(1,26487) -5.90700820E-02                    1_GWF-(1,11149)
         29          1         29       2.2232270                    1_GWF-(1,26542) -5.71204015E-02                    1_GWF-(1,11150)
         30          1         30       1.8591083                    1_GWF-(1,26623) -5.89490042E-02                    1_GWF-(1,11063)
         31          1         31       1.9983705                    1_GWF-(1,26586)  5.03768680E-02                    1_GWF-(1,11158)
         32          1         32       1.7435895                    1_GWF-(1,26422) -4.81770745E-02                    1_GWF-(1,11053)
         33          1         33      -1.9882666                    1_GWF-(1,26422) -5.16275393E-02                    1_GWF-(1,11155)
         34          1         34      -2.0366372                    1_GWF-(1,26350) -4.55228537E-02                    1_GWF-(1,11154)
         35          1         35      -2.0861853                    1_GWF-(1,26422)  4.89816122E-02                    1_GWF-(1,11154)
         36          1         36      -1.9109344                    1_GWF-(1,26350) -4.95963105E-02                    1_GWF-(1,11153)
         37          1         37      -1.7289359                    1_GWF-(1,26422)  4.89069037E-02                    1_GWF-(1,11064)
         38          1         38      -1.5833767                    1_GWF-(1,26648)  5.66232225E-02                    1_GWF-(1,11063)
         39          1         39      -1.5149174                    1_GWF-(1,26649)  4.33568610E-02                    1_GWF-(1,11150)
         40          1         40      -1.4881758                    1_GWF-(1,26623)  3.30914583E-02                    1_GWF-(1,11110)
         41          1         41      -1.3055188                    1_GWF-(1,26649) -3.42930155E-02                    1_GWF-(1,11150)
         42          1         42      -1.1627719                    1_GWF-(1,26623)  3.87312465E-02                    1_GWF-(1,11150)
         43          1         43     -0.99242997                    1_GWF-(1,21484) -3.99444469E-02                    1_GWF-(1,11151)
         44          1         44     -0.99314565                    1_GWF-(1,21412) -4.20025137E-02                    1_GWF-(1,11108)
         45          1         45      -1.2523610                    1_GWF-(1,21259) -3.01163840E-02                    1_GWF-(1,11061)
         46          1         46      -1.1607568                    1_GWF-(1,20925)  3.39945618E-02                    1_GWF-(1,14801)
         47          1         47      -1.2240663                    1_GWF-(1,20919) -4.47740953E-02                    1_GWF-(1,14801)
         48          1         48     -0.91531031                    1_GWF-(1,20918)  5.64361256E-02                    1_GWF-(1,14801)
         49          1         49     -0.68153562                    1_GWF-(1,26217) -6.06024491E-02                    1_GWF-(1,14801)
         50          1         50     -0.62274945                    1_GWF-(1,26218)  8.00071854E-02                    1_GWF-(1,14801)
         51          2          1      -37.255971                    1_GWF-(1,26519)     -0.16587188                    1_GWF-(1,26519)
         52          2          2      -13.909297                    1_GWF-(1,26607) -6.38392381E-02                    1_GWF-(1,26516)
         53          2          3      -7.1985847                    1_GWF-(1,26637)  4.29913073E-02                    1_GWF-(1,26516)
         54          2          4      -7.0872910                    1_GWF-(1,26665)  5.02593665E-02                    1_GWF-(1,14801)
         55          2          5      -4.6140579                    1_GWF-(1,26649) -4.86639098E-02                    1_GWF-(1,14801)
         56          2          6      -3.5233941                    1_GWF-(1,26589)  6.53086586E-02                    1_GWF-(1,14801)
         57          2          7      -3.0060879                    1_GWF-(1,26543) -7.32341483E-02                    1_GWF-(1,14801)
         58          2          8      -2.6413994                    1_GWF-(1,26544)      0.11341085                    1_GWF-(1,14801)
         59          2          9      -1.9217086                    1_GWF-(1,26487) -9.74304207E-02                    1_GWF-(1,14801)
         60          2         10      -1.5926865                    1_GWF-(1,26421)  8.89843434E-02                    1_GWF-(1,14801)
         61          2         11      -1.4855815                    1_GWF-(1,26422)  1.57429521E-02                    1_GWF-(1,14800)
         62          2         12      -1.1825324                    1_GWF-(1,26217)  3.36777592E-02                    1_GWF-(1,14800)
         63          2         13     -0.90644402                    1_GWF-(1,26218)  6.55610263E-02                    1_GWF-(1,14801)
         64          2         14     -0.57611524                    1_GWF-(1,26649) -6.55956357E-02                    1_GWF-(1,14801)
         65          2         15     -0.62653287                    1_GWF-(1,26622)  6.01539742E-02                    1_GWF-(1,14801)
         66          2         16     -0.81674067                    1_GWF-(1,25775)  1.59201671E-02                    1_GWF-(1,14801)
         67          2         17      0.88555253                    1_GWF-(1,26350)  6.41636846E-02                    1_GWF-(1,14800)
         68          2         18      0.88465260                    1_GWF-(1,26217)  9.00311726E-02                    1_GWF-(1,14801)
         69          2         19      0.65687712                    1_GWF-(1,26218)  6.67210526E-02                    1_GWF-(1,14800)
         70          2         20      0.47221103                    1_GWF-(1,26543)  5.16546780E-02                    1_GWF-(1,14801)
         71          2         21      0.70447536                    1_GWF-(1,26588)  1.02190332E-02                    1_GWF-(1,14801)
         72          2         22      0.74660432                    1_GWF-(1,26543)  4.67718785E-02                    1_GWF-(1,14800)
         73          2         23      0.45034347                    1_GWF-(1,26544)  8.25307617E-02                    1_GWF-(1,14801)
         74          2         24     -0.50313491                    1_GWF-(1,26422)  7.32434695E-02                    1_GWF-(1,14800)
         75          2         25     -0.69861590                    1_GWF-(1,26486)  6.22752969E-02                    1_GWF-(1,14801)
         76          2         26     -0.75379901                    1_GWF-(1,26487)  1.14636328E-02                    1_GWF-(1,14800)
         77          2         27     -0.50383094                    1_GWF-(1,26420)  3.89334188E-02                    1_GWF-(1,14800)
         78          2         28     -0.27101218                    1_GWF-(1,26543)  6.86014157E-02                    1_GWF-(1,14801)
         79          2         29      0.28387742                    1_GWF-(1,26487)  6.68545331E-02                    1_GWF-(1,14800)
         80          2         30      0.28505385                    1_GWF-(1,26420)  8.85783822E-02                    1_GWF-(1,14801)
         81          2         31      0.23337405                    1_GWF-(1,25268) -7.99666839E-02                    1_GWF-(1,14801)
         82          2         32      0.26330902                    1_GWF-(1,26218)  8.75968483E-02                    1_GWF-(1,14801)
         83          2         33      0.27735131                    1_GWF-(1,26217)  5.98272536E-02                    1_GWF-(1,14800)
         84          2         34     -0.21024653                    1_GWF-(1,26217)  4.75102606E-02                    1_GWF-(1,14801)
         85          2         35      0.18767095                    1_GWF-(1,26422)  2.99693709E-02                    1_GWF-(1,14800)
         86          2         36      0.18636470                    1_GWF-(1,26218)  2.51955635E-02                    1_GWF-(1,14801)
         87          2         37     -0.20449679                    1_GWF-(1,21290)  1.61285259E-02                    1_GWF-(1,14800)
         88          2         38     -0.20715887                    1_GWF-(1,21282)  1.35686645E-02                    1_GWF-(1,14801)
         89          2         39     -0.19316693                    1_GWF-(1,20937)  7.53888979E-03                    1_GWF-(1,14800)
         90          2         40     -0.18958047                    1_GWF-(1,20915)  5.14682889E-03                    1_GWF-(1,14801)
         91          2         41     -0.15158871                    1_GWF-(1,20908)  7.21018416E-03                    1_GWF-(1,14801)
         92          2         42      0.16058187                    1_GWF-(1,21364)  9.21911240E-03                    1_GWF-(1,14800)
         93          2         43     -0.19480127                    1_GWF-(1,26350)  1.25271198E-02                    1_GWF-(1,14801)
         94          2         44      0.21014113                    1_GWF-(1,21283)  1.20656963E-02                    1_GWF-(1,14800)
         95          2         45      0.20077512                    1_GWF-(1,21265)  1.47297727E-02                    1_GWF-(1,14801)
         96          2         46      0.17916303                    1_GWF-(1,20917)  1.13698134E-02                    1_GWF-(1,14800)
         97          2         47      0.13659890                    1_GWF-(1,20232)  1.04261798E-02                    1_GWF-(1,14801)
         98          2         48 -9.54435071E-02                    1_GWF-(1,26422)  6.85896492E-03                    1_GWF-(1,14800)
         99          2         49 -8.94313331E-02                    1_GWF-(1,26586)  6.56250629E-03                    1_GWF-(1,14801)
        100          2         50 -7.53784355E-02                    1_GWF-(1,20584)  4.97345766E-03                    1_GWF-(1,15939)
        101          3          1     -0.13142089                    1_GWF-(1,11442) -5.38598526E-03                    1_GWF-(1,11378)
        102          3          2     -0.13112456                    1_GWF-(1,11437)  5.40586461E-03                    1_GWF-(1,14800)
        103          3          3  6.94857217E-02                    1_GWF-(1,26623)  7.00438465E-03                    1_GWF-(1,14801)
        104          3          4  6.42519403E-02                    1_GWF-(1,26649)  5.74534691E-03                    1_GWF-(1,14800)
        105          3          5 -7.83330835E-02                    1_GWF-(1,21260)  7.23394214E-03                    1_GWF-(1,14801)
        106          3          6 -6.39923129E-02                    1_GWF-(1,26422)  6.61806215E-03                    1_GWF-(1,14800)
        107          3          7 -6.33948117E-02                    1_GWF-(1,26350)  6.55601327E-03                    1_GWF-(1,14801)
        108          3          8 -7.34874746E-02                    1_GWF-(1,26422)  4.98331394E-03                    1_GWF-(1,14800)
        109          3          9 -7.58293643E-02                    1_GWF-(1,26350)  5.79703528E-03                    1_GWF-(1,14801)
        110          3         10  7.02697610E-02                    1_GWF-(1,20224)  4.02175594E-03                    1_GWF-(1,14800)
        111          3         11  6.45536963E-02                    1_GWF-(1,26422)  3.29749792E-03                    1_GWF-(1,15939)
        112          3         12 -4.99263100E-02                    1_GWF-(1,26422) -2.65270826E-03                    1_GWF-(1,15939)
        113          3         13  4.86482131E-02                    1_GWF-(1,21332) -1.64203088E-03                    1_GWF-(1,11378)
        114          3         14  4.61265331E-02                    1_GWF-(1,21329) -1.67326552E-03                    1_GWF-(1,14800)
        115          3         15  3.47261429E-02                    1_GWF-(1,20989) -2.90705095E-03                    1_GWF-(1,14801)
        116          3         16 -4.59187463E-02                    1_GWF-(1,26665)  3.60037572E-03                    1_GWF-(1,14801)
        117          3         17 -4.32850839E-02                    1_GWF-(1,26672) -4.49674051E-03                    1_GWF-(1,14801)
        118          3         18 -3.62646761E-02                    1_GWF-(1,26673)  6.61299433E-03                    1_GWF-(1,14801)
        119          3         19  2.98575138E-02                    1_GWF-(1,26673)  7.36556394E-03                    1_GWF-(1,14800)
        120          3         20  4.18808992E-02                    1_GWF-(1,26672)  1.03488123E-02                    1_GWF-(1,14801)
        121          3         21 -3.69710757E-02                    1_GWF-(1,20890) -1.01078719E-02                    1_GWF-(1,14801)
        122          3         22  3.08609517E-02                    1_GWF-(1,24848)  1.23834027E-02                    1_GWF-(1,14801)
        123          3         23 -3.26419496E-02                    1_GWF-(1,20222) -1.22049364E-02                    1_GWF-(1,14801)
        124          3         24  4.67420114E-02                    1_GWF-(1,26588)  1.10604164E-02                    1_GWF-(1,14801)
        125          3         25  5.69134723E-02                    1_GWF-(1,26487)  3.38752501E-03                    1_GWF-(1,14800)
        126          3         26  5.74660854E-02                    1_GWF-(1,26420)  3.85972557E-03                    1_GWF-(1,14800)
        127          3         27  4.69862384E-02                    1_GWF-(1,26487)  9.32467724E-03                    1_GWF-(1,14801)
        128          3         28  3.07658755E-02                    1_GWF-(1,25268) -1.08802108E-02                    1_GWF-(1,14801)
        129          3         29 -3.54337705E-02                    1_GWF-(1,26486)  9.13311821E-03                    1_GWF-(1,14801)
        130          3         30 -3.55788884E-02                    1_GWF-(1,26622)  3.38732060E-03                    1_GWF-(1,14800)
        131          3         31 -4.20927156E-02                    1_GWF-(1,26649)  2.74048849E-03                    1_GWF-(1,14800)
        132          3         32 -4.55212476E-02                    1_GWF-(1,26622)  7.23735198E-03                    1_GWF-(1,14801)
        133          3         33 -3.47592005E-02                    1_GWF-(1,26649) -8.12003005E-03                    1_GWF-(1,14801)
        134          3         34  2.96318272E-02                    1_GWF-(1,25735)  7.64280817E-03                    1_GWF-(1,14801)
        135          3         35 -3.62730949E-02                    1_GWF-(1,26665)  2.95674466E-03                    1_GWF-(1,14800)
        136          3         36  4.13274909E-02                    1_GWF-(1,26665) -8.35805684E-04                    1_GWF-(1,15942)
        137          3         37  3.80995579E-02                    1_GWF-(1,26666)  2.93937913E-03                    1_GWF-(1,14801)
        138          3         38  2.95494006E-02                    1_GWF-(1,26665) -3.82776597E-03                    1_GWF-(1,14801)
        139          3         39 -2.01383693E-02                    1_GWF-(1,26665)  3.77811559E-03                    1_GWF-(1,14801)
        140          3         40  2.08399424E-02                    1_GWF-(1,26421) -3.30917034E-03                    1_GWF-(1,14801)
        141          3         41  2.32918279E-02                    1_GWF-(1,26486)  1.50181522E-03                    1_GWF-(1,14801)
        142          3         42  2.72825521E-02                    1_GWF-(1,26487)  4.57186045E-04                    1_GWF-(1,15939)
        143          3         43  2.94135808E-02                    1_GWF-(1,26543) -2.15938477E-03                    1_GWF-(1,14801)
        144          3         44  3.07605948E-02                    1_GWF-(1,26588) -2.26459005E-03                    1_GWF-(1,14800)
        145          3         45  2.24970979E-02                    1_GWF-(1,26622) -2.19194381E-03                    1_GWF-(1,14801)
        146          3         46  2.11696749E-02                    1_GWF-(1,26649) -1.54862123E-03                    1_GWF-(1,14800)
        147          3         47 -1.71300392E-02                    1_GWF-(1,26138) -1.52817145E-03                    1_GWF-(1,14801)
        148          3         48 -1.61861506E-02                    1_GWF-(1,26162) -8.69210951E-04                    1_GWF-(1,15939)
        149          3         49 -1.78185950E-02                    1_GWF-(1,26649)  6.55744363E-04                    1_GWF-(1,15939)
        150          3         50 -1.48991977E-02                    1_GWF-(1,26623)  4.94414832E-04                    1_GWF-(1,15854)
        151          4          1 -1.74644882E-02                    1_GWF-(1,11936)  3.97542907E-04                    1_GWF-(1,15939)
        152          4          2 -8.53118388E-03                    1_GWF-(1,11935) -4.02906228E-04                    1_GWF-(1,15939)
        153          4          3 -8.87331035E-03                    1_GWF-(1,26217) -6.26787437E-04                    1_GWF-(1,14801)
        154          4          4 -9.13867632E-03                    1_GWF-(1,26218) -5.93843027E-04                    1_GWF-(1,14800)
        155          4          5 -7.36366851E-03                    1_GWF-(1,26217) -7.09286979E-04                    1_GWF-(1,14801)
        156          4          6 -8.16341200E-03                    1_GWF-(1,20227) -7.42836563E-04                    1_GWF-(1,14800)
        157          4          7 -7.16897787E-03                    1_GWF-(1,20577) -8.79136487E-04                    1_GWF-(1,14801)
        158          4          8 -6.72324233E-03                    1_GWF-(1,26486) -3.81048587E-04                    1_GWF-(1,14800)
        159          4          9  6.72280708E-03                    1_GWF-(1,26486) -2.02939500E-04                    1_GWF-(1,15939)
        160          4         10  5.95248459E-03                    1_GWF-(1,26487) -4.96523237E-04                    1_GWF-(1,14801)
        161          4         11  4.67971678E-03                    1_GWF-(1,26486)  6.29112378E-04                    1_GWF-(1,14801)
        162          4         12  3.81040282E-03                    1_GWF-(1,26218)  7.14788591E-04                    1_GWF-(1,14800)
        163          4         13 -5.47615281E-03                    1_GWF-(1,26674)  7.58780164E-04                    1_GWF-(1,14801)
        164          4         14 -5.64018274E-03                    1_GWF-(1,26666) -5.12659798E-04                    1_GWF-(1,14801)
        165          4         15  5.82764962E-03                    1_GWF-(1,26666)  1.37817466E-04                    1_GWF-(1,14801)
        166          4         16  7.11360970E-03                    1_GWF-(1,26665)  5.09594177E-04                    1_GWF-(1,14801)
        167          4         17 -5.52801024E-03                    1_GWF-(1,20586)  6.46520188E-04                    1_GWF-(1,14800)
        168          4         18 -3.92919438E-03                    1_GWF-(1,20732)  7.95411939E-04                    1_GWF-(1,14801)
        169          4         19  4.15720642E-03                    1_GWF-(1,26622)  6.13900306E-04                    1_GWF-(1,14800)
        170          4         20 -4.02038118E-03                    1_GWF-(1,26622)  3.42130337E-04                    1_GWF-(1,14801)
        171          4         21 -4.93376802E-03                    1_GWF-(1,26649)  2.96332609E-04                    1_GWF-(1,14801)
        172          4         22 -4.36933015E-03                    1_GWF-(1,26622) -6.15608379E-04                    1_GWF-(1,14801)
        173          4         23 -4.42836300E-03                    1_GWF-(1,26486)  8.40923141E-04                    1_GWF-(1,14801)
        174          4         24 -4.45344583E-03                    1_GWF-(1,26487) -6.06154310E-04                    1_GWF-(1,14801)
        175          4         25 -4.22002645E-03                    1_GWF-(1,26588)  3.09716955E-04                    1_GWF-(1,14801)
        176          4         26 -3.63144968E-03                    1_GWF-(1,26487)  1.99157403E-04                    1_GWF-(1,14801)
        177          4         27 -2.73960725E-03                    1_GWF-(1,26420)  4.50223773E-04                    1_GWF-(1,14800)
        178          4         28 -2.25799303E-03                     1_GWF-(1,8218)  7.08377801E-04                    1_GWF-(1,14801)
        179          4         29 -1.66459224E-03                    1_GWF-(1,23297) -7.51434261E-04                    1_GWF-(1,14801)
        180          4         30 -1.71140515E-03                    1_GWF-(1,23180)  7.58144103E-04                    1_GWF-(1,14801)
        181          4         31  1.72161381E-03                    1_GWF-(1,26422) -5.37393122E-04                    1_GWF-(1,14801)
        182          4         32  1.85094228E-03                    1_GWF-(1,26218)  4.57575609E-04                    1_GWF-(1,14801)
        183          4         33  1.38890048E-03                    1_GWF-(1,26217) -2.82246725E-04                    1_GWF-(1,14801)
        184          4         34  1.24888662E-03                    1_GWF-(1,26350)  1.97672682E-04                    1_GWF-(1,14801)
        185          4         35  1.26915555E-03                    1_GWF-(1,26422) -1.56705346E-04                    1_GWF-(1,14801)
        186          4         36  1.32361968E-03                     1_GWF-(1,7967)  8.17166296E-05                    1_GWF-(1,14801)
        187          4         37  1.24396463E-03                     1_GWF-(1,7967)  8.24960241E-05                    1_GWF-(1,15939)
        188          4         38  1.07064385E-03                    1_GWF-(1,20233) -8.57501530E-05                    1_GWF-(1,15939)
        189          4         39  9.27869451E-04                     1_GWF-(1,8068)  7.02337906E-05                    1_GWF-(1,15939)
        190          4         40 -1.21017917E-03                    1_GWF-(1,26422)  8.24497961E-05                    1_GWF-(1,14799)
        191          4         41 -1.16546384E-03                    1_GWF-(1,26350)  6.42304528E-05                    1_GWF-(1,14801)
        192          4         42 -1.14846248E-03                    1_GWF-(1,26422)  6.62576624E-05                    1_GWF-(1,14800)
        193          4         43 -1.09267273E-03                    1_GWF-(1,26350)  8.34296401E-05                    1_GWF-(1,14801)
        194          4         44 -1.00193608E-03                    1_GWF-(1,26422)  6.86304479E-05                    1_GWF-(1,14800)
        195          4         45 -8.22849986E-04                    1_GWF-(1,20180)  8.58563926E-05                    1_GWF-(1,14801)
        196          4         46 -8.42373550E-04                    1_GWF-(1,26422)  7.12095222E-05                    1_GWF-(1,14800)
        197          4         47 -6.79824247E-04                    1_GWF-(1,26350)  7.07277397E-05                    1_GWF-(1,14801)
        198          4         48  6.14713526E-04                    1_GWF-(1,26350)  5.50225190E-05                    1_GWF-(1,14800)
        199          4         49  8.12867868E-04                    1_GWF-(1,11437)  5.90694063E-05                    1_GWF-(1,14801)
        200          4         50  7.54735097E-04                    1_GWF-(1,11442)  4.12110873E-05                    1_GWF-(1,15939)
        201          5          1 -7.62766513E-03                    1_GWF-(1,11378)  2.89635413E-05                    1_GWF-(1,14801)
        202          5          2 -2.11951300E-03                    1_GWF-(1,11369)  2.63543240E-05                    1_GWF-(1,14800)
        203          5          3 -1.07480689E-03                    1_GWF-(1,11456)  3.74082194E-05                    1_GWF-(1,14801)
        204          5          4 -7.97528800E-04                    1_GWF-(1,11458)  4.09564369E-05                    1_GWF-(1,14800)
        205          5          5  6.65753777E-04                    1_GWF-(1,11453)  6.09845199E-05                    1_GWF-(1,14801)
        206          5          6  7.53418452E-04                    1_GWF-(1,11460)  5.38208802E-05                    1_GWF-(1,14800)
        207          5          7  6.08281452E-04                    1_GWF-(1,11959)  6.36268515E-05                    1_GWF-(1,14801)
        208          5          8  6.28252112E-04                    1_GWF-(1,11997)  4.93586301E-05                    1_GWF-(1,14800)
        209          5          9  7.12542754E-04                    1_GWF-(1,11977)  4.79970389E-05                    1_GWF-(1,14801)
        210          5         10  6.40529255E-04                    1_GWF-(1,11981)  3.72035613E-05                    1_GWF-(1,14799)
        211          5         11  6.43595245E-04                    1_GWF-(1,26649)  3.53645725E-05                    1_GWF-(1,14800)
        212          5         12 -6.44744766E-04                    1_GWF-(1,26649)  5.13463236E-05                    1_GWF-(1,14801)
        213          5         13 -5.45937097E-04                    1_GWF-(1,26486)  3.59354400E-05                    1_GWF-(1,14800)
        214          5         14  4.60620392E-04                    1_GWF-(1,26486)  2.83548100E-05                    1_GWF-(1,14801)
        215          5         15 -5.01661525E-04                    1_GWF-(1,26486)  2.35428663E-05                    1_GWF-(1,14799)
        216          5         16 -4.37537601E-04                    1_GWF-(1,26350) -2.17021422E-05                    1_GWF-(1,14799)
        217          5         17 -4.86335326E-04                    1_GWF-(1,26486)  2.77564525E-05                    1_GWF-(1,14799)
        218          5         18 -4.19819707E-04                    1_GWF-(1,26487) -2.15442057E-05                    1_GWF-(1,14799)
        219          5         19 -5.52091353E-04                    1_GWF-(1,26486)  2.63510451E-05                    1_GWF-(1,14799)
        220          5         20 -6.09492670E-04                    1_GWF-(1,26487)  2.35167090E-05                    1_GWF-(1,14800)
        221          5         21 -5.36268232E-04                    1_GWF-(1,26486)  2.00393858E-05                    1_GWF-(1,14801)
        222          5         22 -4.23363743E-04                    1_GWF-(1,26487)  3.41616379E-05                    1_GWF-(1,14799)
        223          5         23 -2.79199648E-04                    1_GWF-(1,21009)  2.35177143E-05                    1_GWF-(1,14798)
        224          5         24  3.63078866E-04                     1_GWF-(1,8212)  2.95067193E-05                    1_GWF-(1,14801)
        225          5         25  3.96194408E-04                     1_GWF-(1,8047) -4.31069660E-05                    1_GWF-(1,14801)
        226          5         26  3.04726824E-04                     1_GWF-(1,8043)  5.60562431E-05                    1_GWF-(1,14801)
        227          5         27  3.33192956E-04                    1_GWF-(1,26588)  6.07206388E-05                    1_GWF-(1,14800)
        228          5         28  3.49170979E-04                    1_GWF-(1,26543)  7.84634466E-05                    1_GWF-(1,14801)
        229          5         29  4.11752690E-04                    1_GWF-(1,26588) -6.84487972E-05                    1_GWF-(1,14801)
        230          5         30 -3.97926553E-04                    1_GWF-(1,26588)  2.38214395E-05                    1_GWF-(1,14801)
        231          5         31 -3.34869705E-04                    1_GWF-(1,26665)  2.31155646E-05                    1_GWF-(1,14801)
        232          5         32 -3.08415378E-04                    1_GWF-(1,26588) -4.68527266E-05                    1_GWF-(1,14801)
        233          5         33 -2.15420209E-04                    1_GWF-(1,26543)  7.45780382E-05                    1_GWF-(1,14801)
        234          5         34 -1.73128317E-04                    1_GWF-(1,26350) -8.52066233E-05                    1_GWF-(1,14801)
        235          5         35 -1.66534773E-04                    1_GWF-(1,26422)  9.98624982E-05                    1_GWF-(1,14801)
        236          5         36  1.32741394E-04                    1_GWF-(1,21268) -8.33680012E-05                    1_GWF-(1,14801)
        237          5         37 -1.11695213E-04                    1_GWF-(1,22533)  7.01708666E-05                    1_GWF-(1,14801)
        238          5         38  1.22415814E-04                     1_GWF-(1,8184) -5.00284117E-05                    1_GWF-(1,14801)
        239          5         39  1.39065182E-04                     1_GWF-(1,8092)  3.86272933E-05                    1_GWF-(1,14801)
        240          5         40 -1.67069867E-04                    1_GWF-(1,26665) -1.61274536E-05                    1_GWF-(1,14801)
        241          5         41  1.63178496E-04                    1_GWF-(1,26665) -8.21514449E-06                    1_GWF-(1,14799)
        242          5         42 -1.79445100E-04                    1_GWF-(1,26665)  2.57677826E-05                    1_GWF-(1,14801)
        243          5         43  1.57121287E-04                    1_GWF-(1,26665) -3.29990997E-05                    1_GWF-(1,14801)
        244          5         44 -1.30534658E-04                    1_GWF-(1,26665) -2.66485446E-05                    1_GWF-(1,14800)
        245          5         45 -1.06264140E-04                    1_GWF-(1,25541) -2.46674099E-05                    1_GWF-(1,14801)
        246          5         46 -9.49395029E-05                    1_GWF-(1,25538) -1.51463380E-05                    1_GWF-(1,14800)
        247          5         47 -8.69957489E-05                    1_GWF-(1,25793) -1.33346814E-05                    1_GWF-(1,14801)
        248          5         48 -9.11524351E-05                    1_GWF-(1,26135) -1.43574513E-05                    1_GWF-(1,14799)
        249          5         49 -8.55010482E-05                    1_GWF-(1,20571)  1.24749446E-05                    1_GWF-(1,14799)
        250          5         50 -8.76191377E-05                    1_GWF-(1,20572) -1.50574720E-05                    1_GWF-(1,14799)
        251          6          1 -5.98858559E-05                    1_GWF-(1,26217)  1.56139836E-05                    1_GWF-(1,14799)
        252          6          2 -7.41734957E-05                    1_GWF-(1,26218) -1.77649248E-05                    1_GWF-(1,14799)
        253          6          3 -7.88426333E-05                    1_GWF-(1,21333)  1.48530490E-05                    1_GWF-(1,14799)
        254          6          4 -8.20118753E-05                    1_GWF-(1,21356) -1.37870134E-05                    1_GWF-(1,14799)
        255          6          5 -8.59348474E-05                    1_GWF-(1,26487) -7.51560597E-06                    1_GWF-(1,14801)
        256          6          6 -1.01966687E-04                    1_GWF-(1,26486) -3.33994480E-06                    1_GWF-(1,14798)
        257          6          7 -8.78521557E-05                    1_GWF-(1,26487) -1.03275708E-05                    1_GWF-(1,14799)
        258          6          8 -7.48263355E-05                    1_GWF-(1,21689)  1.06545907E-05                    1_GWF-(1,14799)
        259          6          9 -7.38662438E-05                    1_GWF-(1,21681) -1.20219880E-05                    1_GWF-(1,14799)
        260          6         10 -6.26217432E-05                    1_GWF-(1,21679) -1.18603788E-05                    1_GWF-(1,14801)
        261          6         11 -5.80260454E-05                     1_GWF-(1,8090)  1.14252597E-05                    1_GWF-(1,14801)
        262          6         12  5.56068785E-05                    1_GWF-(1,26665)  7.62884443E-06                    1_GWF-(1,14800)
        263          6         13 -6.39158640E-05                    1_GWF-(1,26665)  3.93405649E-06                    1_GWF-(1,14801)
        264          6         14 -5.36548395E-05                    1_GWF-(1,26666)  5.24716853E-06                    1_GWF-(1,14798)
        265          6         15 -5.04320507E-05                    1_GWF-(1,21274)  7.63958144E-06                    1_GWF-(1,14799)
        266          6         16 -5.87205609E-05                    1_GWF-(1,21269)  1.17260711E-05                    1_GWF-(1,14801)
        267          6         17 -5.23666704E-05                    1_GWF-(1,20610) -1.22812815E-05                    1_GWF-(1,14801)
        268          6         18 -4.97757450E-05                    1_GWF-(1,20736)  1.22811585E-05                    1_GWF-(1,14801)
        269          6         19  4.22121212E-05                    1_GWF-(1,26622)  6.84239555E-06                    1_GWF-(1,14800)
        270          6         20 -4.52377434E-05                    1_GWF-(1,26487)  3.24950165E-06                    1_GWF-(1,14799)
        271          6         21 -5.07946890E-05                    1_GWF-(1,26486)  7.13582344E-06                    1_GWF-(1,14801)
        272          6         22 -4.53565791E-05                    1_GWF-(1,26487) -1.14448162E-05                    1_GWF-(1,14801)
        273          6         23 -4.10015953E-05                    1_GWF-(1,26486)  1.25845797E-05                    1_GWF-(1,14801)
        274          6         24 -3.15502860E-05                    1_GWF-(1,26542) -1.05867603E-05                    1_GWF-(1,14801)
        275          6         25 -2.91010792E-05                     1_GWF-(1,8019)  8.88393235E-06                    1_GWF-(1,14801)
        276          6         26 -2.85676305E-05                     1_GWF-(1,8037) -7.40510789E-06                    1_GWF-(1,14801)
        277          6         27 -2.69690247E-05                     1_GWF-(1,8047)  5.90150271E-06                    1_GWF-(1,14801)
        278          6         28 -1.80622043E-05                     1_GWF-(1,8048)  3.34204401E-06                    1_GWF-(1,14800)
        279          6         29  2.71654070E-05                    1_GWF-(1,26588)  2.28609718E-06                    1_GWF-(1,14799)
        280          6         30  2.75951197E-05                    1_GWF-(1,26543)  1.69448455E-06                    1_GWF-(1,14801)
        281          6         31  3.16103226E-05                    1_GWF-(1,26588) -2.47822606E-06                    1_GWF-(1,14801)
        282          6         32  2.10715373E-05                    1_GWF-(1,26543)  2.87201787E-06                    1_GWF-(1,14801)
        283          6         33  1.68666398E-05                    1_GWF-(1,26420)  1.99120558E-06                    1_GWF-(1,14800)
        284          6         34  1.17886703E-05                    1_GWF-(1,26487)  1.91429591E-06                    1_GWF-(1,14799)
        285          6         35  1.43457625E-05                     1_GWF-(1,7950) -1.43919953E-06                    1_GWF-(1,14799)
        286          6         36  1.58667189E-05                     1_GWF-(1,7950)  1.60063622E-06                    1_GWF-(1,14799)
        287          6         37  1.60543226E-05                     1_GWF-(1,8084)  1.39401564E-06                    1_GWF-(1,14798)
        288          6         38  1.30238628E-05                     1_GWF-(1,8012)  2.12255474E-06                    1_GWF-(1,14799)
        289          6         39  1.06204543E-05                     1_GWF-(1,8210)  1.44987240E-06                    1_GWF-(1,14798)
        290          6         40 -1.36474704E-05                    1_GWF-(1,26422)  1.90547198E-06                    1_GWF-(1,14799)
        291          6         41 -1.33764066E-05                    1_GWF-(1,26350)  1.07044893E-06                    1_GWF-(1,14798)
        292          6         42 -1.25287813E-05                    1_GWF-(1,26422)  8.00828373E-07                    1_GWF-(1,14800)
        293          6         43 -9.06814512E-06                    1_GWF-(1,26350)  8.33085816E-07                    1_GWF-(1,14801)
        294          6         44 -1.12409607E-05                    1_GWF-(1,26623)  6.72774752E-07                    1_GWF-(1,14798)
        295          6         45 -1.11231902E-05                    1_GWF-(1,26622)  8.28769901E-07                    1_GWF-(1,14799)
        296          6         46 -8.88455096E-06                    1_GWF-(1,26544)  8.06264210E-07                    1_GWF-(1,14801)
        297          6         47 -9.54934932E-06                    1_GWF-(1,26486)  6.63266935E-07                    1_GWF-(1,14800)
        298          6         48  9.74931391E-06                    1_GWF-(1,11459)  7.02577359E-07                    1_GWF-(1,14801)
        299          6         49  1.07663401E-05                    1_GWF-(1,11454)  6.80704020E-07                    1_GWF-(1,14800)
        300          6         50  1.40675084E-05                    1_GWF-(1,11369)  1.74539490E-06                    1_GWF-(1,14799)
        301          7          1 -1.73491949E-05                    1_GWF-(1,11369) -9.26985585E-07                    1_GWF-(1,14799)
        302          7          2 -1.20562167E-05                    1_GWF-(1,11378)  9.92047186E-07                    1_GWF-(1,14799)
        303          7          3  7.57387241E-06                    1_GWF-(1,26544)  4.94573626E-07                    1_GWF-(1,14798)
        304          7          4  1.04394338E-05                    1_GWF-(1,26486)  4.18584610E-07                    1_GWF-(1,14801)
        305          7          5  8.80614789E-06                    1_GWF-(1,26487)  6.55682477E-07                    1_GWF-(1,14799)
        306          7          6  7.53180004E-06                    1_GWF-(1,26420)  6.79505061E-07                    1_GWF-(1,14798)
        307          7          7  7.17831786E-06                    1_GWF-(1,26422)  9.41904339E-07                    1_GWF-(1,14799)
        308          7          8 -7.83609005E-06                    1_GWF-(1,11378)  5.73127723E-07                    1_GWF-(1,14800)
        309          7          9  7.80261029E-06                    1_GWF-(1,20578)  6.37116270E-07                    1_GWF-(1,14801)
        310          7         10  7.08349640E-06                    1_GWF-(1,20575)  8.03954716E-07                    1_GWF-(1,14799)
        311          7         11 -6.75222187E-06                    1_GWF-(1,26648)  6.93890906E-07                    1_GWF-(1,14798)
        312          7         12 -8.65596003E-06                    1_GWF-(1,26649)  7.29018649E-07                    1_GWF-(1,14799)
        313          7         13  9.37952964E-06                    1_GWF-(1,26649)  3.54492594E-07                    1_GWF-(1,14800)
        314          7         14  7.21961742E-06                    1_GWF-(1,26622)  4.02249814E-07                    1_GWF-(1,14798)
        315          7         15 -7.16622288E-06                     1_GWF-(1,7958)  7.27155520E-07                    1_GWF-(1,14799)
        316          7         16 -6.44455606E-06                     1_GWF-(1,7950) -8.62026349E-07                    1_GWF-(1,14799)
        317          7         17 -4.78327093E-06                     1_GWF-(1,7946)  1.02848761E-06                    1_GWF-(1,14799)
        318          7         18 -5.55169468E-06                    1_GWF-(1,26623) -6.84271964E-07                    1_GWF-(1,14799)
        319          7         19 -6.81432228E-06                    1_GWF-(1,26665)  4.69501461E-07                    1_GWF-(1,14799)
        320          7         20 -6.17379985E-06                    1_GWF-(1,26588)  4.33690123E-07                    1_GWF-(1,14799)
        321          7         21 -5.86307088E-06                    1_GWF-(1,26665)  6.62805242E-07                    1_GWF-(1,14798)
        322          7         22 -5.13540585E-06                    1_GWF-(1,26588)  1.05814956E-06                    1_GWF-(1,14799)
        323          7         23  4.53792786E-06                    1_GWF-(1,26588) -8.30730096E-07                    1_GWF-(1,14799)
        324          7         24  4.65119962E-06                     1_GWF-(1,8043)  7.38073213E-07                    1_GWF-(1,14799)
        325          7         25  5.41970864E-06                    1_GWF-(1,26588) -3.82680654E-07                    1_GWF-(1,14799)
        326          7         26  5.08392085E-06                    1_GWF-(1,26543)  2.06219188E-07                    1_GWF-(1,14801)
        327          7         27  4.74779335E-06                    1_GWF-(1,26588)  6.84646857E-07                    1_GWF-(1,14799)
        328          7         28  4.02578111E-06                    1_GWF-(1,26543) -8.37627833E-07                    1_GWF-(1,14799)
        329          7         29  3.12437264E-06                    1_GWF-(1,22568)  8.08491218E-07                    1_GWF-(1,14799)
        330          7         30 -3.88465401E-06                     1_GWF-(1,8046) -8.49038941E-07                    1_GWF-(1,14799)
        331          7         31 -2.99217158E-06                     1_GWF-(1,8444)  7.64171998E-07                    1_GWF-(1,14799)
        332          7         32 -2.64278835E-06                     1_GWF-(1,8215) -5.53859933E-07                    1_GWF-(1,14801)
        333          7         33 -2.31865164E-06                     1_GWF-(1,8226)  6.95682521E-07                    1_GWF-(1,14801)
        334          7         34  1.79571027E-06                    1_GWF-(1,20232) -6.86863686E-07                    1_GWF-(1,14801)
        335          7         35  2.73477461E-06                    1_GWF-(1,26622)  5.80779382E-07                    1_GWF-(1,14801)
        336          7         36 -3.05967074E-06                    1_GWF-(1,26622)  2.49874002E-07                    1_GWF-(1,14799)
        337          7         37 -2.44288856E-06                    1_GWF-(1,26649) -3.53148389E-07                    1_GWF-(1,14801)
        338          7         38  1.56050755E-06                     1_GWF-(1,8090)  6.27594589E-07                    1_GWF-(1,14801)
        339          7         39  2.00177607E-06                     1_GWF-(1,7980) -7.13050074E-07                    1_GWF-(1,14801)
        340          7         40  1.85971029E-06                     1_GWF-(1,8009)  8.11630475E-07                    1_GWF-(1,14801)
        341          7         41 -1.38510691E-06                    1_GWF-(1,20580) -7.79194225E-07                    1_GWF-(1,14801)
        342          7         42 -1.30002339E-06                    1_GWF-(1,22703)  5.97983012E-07                    1_GWF-(1,14801)
        343          7         43  1.47040059E-06                    1_GWF-(1,26486) -3.22776072E-07                    1_GWF-(1,14801)
        344          7         44  2.10946127E-06                    1_GWF-(1,26487) -1.14952566E-07                    1_GWF-(1,14799)
        345          7         45  2.25138203E-06                    1_GWF-(1,26486) -2.57601921E-07                    1_GWF-(1,14800)
        346          7         46  1.77777270E-06                    1_GWF-(1,26487) -3.75753569E-07                    1_GWF-(1,14801)
        347          7         47  1.06143913E-06                    1_GWF-(1,26649)  2.97447005E-07                    1_GWF-(1,14801)
        348          7         48 -1.12558657E-06                    1_GWF-(1,26133) -2.26510036E-07                    1_GWF-(1,14801)
        349          7         49 -9.23133695E-07                    1_GWF-(1,20229) -2.07709849E-07                    1_GWF-(1,14799)
        350          8          1 -3.61229111E-07                    1_GWF-(1,26649)  1.88716591E-07                    1_GWF-(1,14799)
 --------------------------------------------------------------------------------------------------------------------------------------



 MEMORY MANAGER TOTAL STORAGE BY DATA TYPE, IN MEGABYTES
 -------------------------------
                    ALLOCATED   
 DATA TYPE           MEMORY     
 -------------------------------
 Character        4.66090000E-02
 Logical          4.40000000E-05
 Integer          5.2037920     
 Real             11.901376     
 -------------------------------
 Total            17.151821     
 -------------------------------


 
 Run end date and time (yyyy/mm/dd hh:mm:ss): 2022/04/29 15:36:50
 Elapsed run time:  0.508 Seconds
 Normal termination of simulation.
