                                   MODFLOW 6
                U.S. GEOLOGICAL SURVEY MODULAR HYDROLOGIC MODEL
                            VERSION 6.2.2 07/30/2021

   MODFLOW 6 compiled Jul 31 2021 14:22:53 with IFORT compiler (ver. 19.10.3)

This software has been approved for release by the U.S. Geological 
Survey (USGS). Although the software has been subjected to rigorous 
review, the USGS reserves the right to update the software as needed 
pursuant to further analysis and review. No warranty, expressed or 
implied, is made by the USGS or the U.S. Government as to the 
functionality of the software and related material nor shall the 
fact of release constitute any such warranty. Furthermore, the 
software is released on condition that neither the USGS nor the U.S. 
Government shall be held liable for any damages resulting from its 
authorized or unauthorized use. Also refer to the USGS Water 
Resources Software User Rights Notice for complete use, copyright, 
and distribution information.


System command used to initiate simulation:
mf6

MODFLOW was compiled using uniform precision.

Real Variables
  KIND: 8
  TINY (smallest non-zero value):    2.225074-308
  HUGE (largest value):    1.797693+308
  PRECISION: 15
  BIT SIZE: 64

Integer Variables
  KIND: 4
  HUGE (largest value): 2147483647
  BIT SIZE: 32

Long Integer Variables
  KIND: 8
  HUGE (largest value): 9223372036854775807
  BIT SIZE: 64

Logical Variables
  KIND: 4
  BIT SIZE: 32
 

 OPENED mfsim.nam
 FILE TYPE:NAM   UNIT 1001   STATUS:OLD                 
 FORMAT:FORMATTED              ACCESS:SEQUENTIAL          
 ACTION:READ                

 # File generated by Flopy version 3.3.5 on 04/25/2022 at 00:16:01.

 READING SIMULATION OPTIONS
 END OF SIMULATION OPTIONS

 READING SIMULATION TIMING

 OPENED mfsim.tdis
 FILE TYPE:TDIS   UNIT 1002   STATUS:OLD                 
 FORMAT:FORMATTED              ACCESS:SEQUENTIAL          
 ACTION:READ                


 TDIS -- TEMPORAL DISCRETIZATION PACKAGE,
 VERSION 1 : 11/13/2014 - INPUT READ FROM UNIT 1002
 # File generated by Flopy version 3.3.5 on 04/25/2022 at 00:16:01.
 PROCESSING TDIS OPTIONS
    SIMULATION TIME UNIT IS SECONDS
 END OF TDIS OPTIONS
 PROCESSING TDIS DIMENSIONS
    1 STRESS PERIOD(S) IN SIMULATION
 END OF TDIS DIMENSIONS
 PROCESSING TDIS PERIODDATA


 STRESS PERIOD     LENGTH       TIME STEPS     MULTIPLIER FOR DELT
 ----------------------------------------------------------------------------
        1         8.000000          1                    1.000
 END OF TDIS PERIODDATA
 END OF SIMULATION TIMING

 READING SIMULATION MODELS
    GWF6 model ML will be created as model 1
 END OF SIMULATION MODELS

 READING SIMULATION EXCHANGES
 END OF SIMULATION EXCHANGES

 READING SOLUTIONGROUP

 Creating solution: SLN_1           

 OPENED mfsim.ims
 FILE TYPE:IMS   UNIT 1015   STATUS:OLD                 
 FORMAT:FORMATTED              ACCESS:SEQUENTIAL          
 ACTION:READ                

 END OF SIMULATION SOLUTIONGROUP

 IMS -- ITERATIVE MODEL SOLUTION PACKAGE, VERSION 6, 4/28/2017
         INPUT READ FROM UNIT 1015
 # File generated by Flopy version 3.3.5 on 04/25/2022 at 00:16:01.

 PROCESSING IMS OPTIONS
 END OF IMS OPTIONS

 PROCESSING IMS NONLINEAR
 END OF IMS NONLINEAR DATA
 ***UNDER-RELAXATION WILL NOT BE USED***
 
 ***IMS LINEAR SOLVER WILL BE USED***

 IMSLINEAR -- UNSTRUCTURED LINEAR SOLUTION PACKAGE, VERSION 8, 04/28/2017

 PROCESSING LINEAR DATA
 END OF LINEAR DATA
 
 OUTER ITERATION CONVERGENCE CRITERION    (DVCLOSE) =    0.100000E-04
 MAXIMUM NUMBER OF OUTER ITERATIONS        (MXITER) = 100
 SOLVER PRINTOUT INDEX                     (IPRIMS) = 2
 NONLINEAR ITERATION METHOD            (NONLINMETH) = 0
 LINEAR SOLUTION METHOD                   (LINMETH) = 1

       SOLUTION BY THE        CONJUGATE-GRADIENT       METHOD
 ------------------------------------------------------------------
 MAXIMUM OF 100 CALLS OF SOLUTION ROUTINE
 MAXIMUM OF 50 INTERNAL ITERATIONS PER CALL TO SOLUTION ROUTINE
 LINEAR ACCELERATION METHOD            = CG        
 MATRIX PRECONDITIONING TYPE           = INCOMPLETE LU       
 MATRIX SCALING APPROACH               = NO SCALING          
 MATRIX REORDERING APPROACH            = ORIGINAL ORDERING        
 NUMBER OF ORTHOGONALIZATIONS          = 0
 HEAD CHANGE CRITERION FOR CLOSURE     =    0.10000E-05
 RESIDUAL CHANGE CRITERION FOR CLOSURE =    0.10000E-04
 RESIDUAL CONVERGENCE OPTION           = 1
 RESIDUAL CONVERGENCE NORM             = INFINITY NORM S 
 RELAXATION FACTOR                     =    0.00000E+00



 
    Solving:  Stress period:     1    Time step:     1
 
1
                            STRESS PERIOD NO. 1, LENGTH =   8.000000    
                            -----------------------------------------------
                            NUMBER OF TIME STEPS = 1
                            MULTIPLIER FOR DELT =     1.000
                            INITIAL TIME STEP SIZE =   8.000000    

 SLN_1 OUTER ITERATION SUMMARY
 ----------------------------------------------------------------------------------------------------------
                                OUTER      INNER                    STEP   MAXIMUM CHANGE MODEL-(CELLID) OR
 OUTER ITERATION STEP       ITERATION  ITERATION  MAXIMUM CHANGE SUCCESS             MODEL-PACKAGE-(NUMBER)
 ----------------------------------------------------------------------------------------------------------
 Model                              1         50       610.58180                            1_GWF-(1,26381)
 Model                              2         50      -607.88830                            1_GWF-(1,26381)
 Model                              3         50      -2.4687026                            1_GWF-(1,23178)
 Model                              4         50     -0.56715732                            1_GWF-(1,22353)
 Model                              5         50 -6.29303312E-02                            1_GWF-(1,11378)
 Model                              6         50 -9.15613446E-03                            1_GWF-(1,22354)
 Model                              7         50  1.16758780E-03                            1_GWF-(1,21836)
 Model                              8         50 -4.46055132E-04                            1_GWF-(1,22362)
 Model                              9         50  4.23409163E-05                            1_GWF-(1,24253)
 Model                             10         29 -1.75972677E-05                            1_GWF-(1,22374)
 Model                             11          1  7.94703299E-07       *                    1_GWF-(1,26486)
 ----------------------------------------------------------------------------------------------------------


 11 CALLS TO NUMERICAL SOLUTION IN TIME STEP 1 STRESS PERIOD 1
 480 TOTAL ITERATIONS

 SLN_1 INNER ITERATION SUMMARY
 --------------------------------------------------------------------------------------------------------------------------------------
      TOTAL      OUTER      INNER                                                            MAXIMUM                                   
  ITERATION  ITERATION  ITERATION  MAXIMUM CHANGE      MAXIMUM CHANGE MODEL-(CELLID)        RESIDUAL    MAXIMUM RESIDUAL MODEL-(CELLID)
 --------------------------------------------------------------------------------------------------------------------------------------
          1          1          1       183.02405                    1_GWF-(1,26381)       1.9457459                     1_GWF-(1,7788)
          2          1          2       273.12374                    1_GWF-(1,26380)      -1.1319374                    1_GWF-(1,15907)
          3          1          3       157.73462                    1_GWF-(1,26444)      0.85995762                    1_GWF-(1,15907)
          4          1          4       83.461753                    1_GWF-(1,26380)      0.57298657                    1_GWF-(1,15226)
          5          1          5       66.861455                    1_GWF-(1,26520)     -0.37982495                    1_GWF-(1,15221)
          6          1          6       60.582530                    1_GWF-(1,26572)      0.46061665                    1_GWF-(1,15216)
          7          1          7       62.579811                    1_GWF-(1,26648)      0.40545585                    1_GWF-(1,15226)
          8          1          8       53.736176                    1_GWF-(1,26649)     -0.36508884                    1_GWF-(1,15226)
          9          1          9       39.179113                    1_GWF-(1,26589)      0.33228965                    1_GWF-(1,15221)
         10          1         10       32.733387                    1_GWF-(1,26543)     -0.17142955                    1_GWF-(1,15216)
         11          1         11       24.904925                    1_GWF-(1,26544)     -0.15707824                    1_GWF-(1,15226)
         12          1         12       21.046051                    1_GWF-(1,26420)      0.19896586                    1_GWF-(1,15221)
         13          1         13       18.531406                    1_GWF-(1,26422) -6.98584465E-02                    1_GWF-(1,15216)
         14          1         14       13.395042                    1_GWF-(1,26350) -9.26137167E-02                    1_GWF-(1,15221)
         15          1         15       8.6262008                    1_GWF-(1,26218)      0.10009412                    1_GWF-(1,15221)
         16          1         16      -8.2817077                    1_GWF-(1,26622)  4.54276200E-02                    1_GWF-(1,11047)
         17          1         17      -6.5747994                    1_GWF-(1,26623)     -0.11870632                    1_GWF-(1,15221)
         18          1         18      -6.2152781                    1_GWF-(1,26543)      0.12222449                    1_GWF-(1,15221)
         19          1         19      -6.8970376                    1_GWF-(1,26588)  6.15350969E-02                    1_GWF-(1,11152)
         20          1         20       10.426931                    1_GWF-(1,26588)     -0.10824415                    1_GWF-(1,15221)
         21          1         21      -8.4102149                    1_GWF-(1,26588)  6.75506415E-02                    1_GWF-(1,15221)
         22          1         22      -8.7422233                    1_GWF-(1,26543)  7.47584900E-02                    1_GWF-(1,15910)
         23          1         23      -7.7092329                    1_GWF-(1,26544)     -0.11416445                    1_GWF-(1,15221)
         24          1         24      -11.108752                    1_GWF-(1,26486)  5.14609714E-02                    1_GWF-(1,15221)
         25          1         25      -10.326239                    1_GWF-(1,26487)  8.70899655E-02                    1_GWF-(1,15910)
         26          1         26       10.918347                    1_GWF-(1,26487) -9.03119545E-02                    1_GWF-(1,15221)
         27          1         27       10.605733                    1_GWF-(1,26420) -5.25678386E-02                    1_GWF-(1,11203)
         28          1         28       6.3537852                    1_GWF-(1,26487)  6.36317464E-02                    1_GWF-(1,15910)
         29          1         29       4.5309279                    1_GWF-(1,26542) -5.84964350E-02                    1_GWF-(1,15221)
         30          1         30       5.1677712                    1_GWF-(1,26623) -3.40926184E-02                    1_GWF-(1,11050)
         31          1         31       3.8680612                    1_GWF-(1,26586)  4.61182457E-02                    1_GWF-(1,15910)
         32          1         32       3.9013323                    1_GWF-(1,26422) -5.11267199E-02                    1_GWF-(1,11203)
         33          1         33       4.3722731                    1_GWF-(1,26544) -4.38668315E-02                    1_GWF-(1,11200)
         34          1         34       3.9523198                    1_GWF-(1,26665)  2.86616765E-02                    1_GWF-(1,15910)
         35          1         35       3.5007115                    1_GWF-(1,26350) -2.89727585E-02                    1_GWF-(1,15221)
         36          1         36       3.7957792                    1_GWF-(1,26422) -2.45764317E-02                    1_GWF-(1,11200)
         37          1         37      -2.7542808                    1_GWF-(1,26422) -2.39746523E-02                    1_GWF-(1,11152)
         38          1         38      -3.4999352                    1_GWF-(1,26350) -2.82255714E-02                    1_GWF-(1,15216)
         39          1         39      -2.3800394                    1_GWF-(1,26622) -3.55133374E-02                    1_GWF-(1,11206)
         40          1         40      -2.4402033                    1_GWF-(1,26648)  2.76142598E-02                    1_GWF-(1,11108)
         41          1         41      -1.8808883                    1_GWF-(1,26649)  2.93605323E-02                    1_GWF-(1,11159)
         42          1         42      -1.7247605                    1_GWF-(1,26623)  3.61689353E-02                    1_GWF-(1,11197)
         43          1         43      -1.6334666                    1_GWF-(1,26586) -3.21396910E-02                    1_GWF-(1,11206)
         44          1         44      -1.2407240                    1_GWF-(1,26543)  3.96771007E-02                    1_GWF-(1,11206)
         45          1         45      -1.2237972                    1_GWF-(1,26486)  2.40367964E-02                    1_GWF-(1,11201)
         46          1         46       1.0240878                    1_GWF-(1,26649) -2.12563968E-02                    1_GWF-(1,11201)
         47          1         47       1.1845294                    1_GWF-(1,26648) -2.18694757E-02                    1_GWF-(1,12427)
         48          1         48      -1.5741835                    1_GWF-(1,26218)  2.48637582E-02                    1_GWF-(1,11197)
         49          1         49      -1.6061614                    1_GWF-(1,26217) -1.72045313E-02                    1_GWF-(1,11206)
         50          1         50       1.1525799                    1_GWF-(1,26217)  1.34307870E-02                    1_GWF-(1,11206)
         51          2          1      -609.75890                    1_GWF-(1,26381)      -3.3993850                    1_GWF-(1,26381)
         52          2          2      -220.00589                    1_GWF-(1,26513)       1.1520429                    1_GWF-(1,26381)
         53          2          3      -104.65244                    1_GWF-(1,26440)      0.72260007                    1_GWF-(1,26506)
         54          2          4      -62.922554                    1_GWF-(1,26665)     -0.29519501                    1_GWF-(1,26506)
         55          2          5      -52.733839                    1_GWF-(1,26649)      0.28521219                    1_GWF-(1,26381)
         56          2          6      -45.647256                    1_GWF-(1,26589)     -0.30903739                    1_GWF-(1,26381)
         57          2          7      -41.568993                    1_GWF-(1,26588)     -0.25961002                    1_GWF-(1,26506)
         58          2          8      -32.170622                    1_GWF-(1,26544)      0.13360370                    1_GWF-(1,26506)
         59          2          9      -25.669831                    1_GWF-(1,26487)     -0.11629003                    1_GWF-(1,26381)
         60          2         10      -19.087449                    1_GWF-(1,26421)     -0.12244562                    1_GWF-(1,26506)
         61          2         11      -17.114881                    1_GWF-(1,26348)  5.25659495E-02                    1_GWF-(1,26665)
         62          2         12      -13.076104                    1_GWF-(1,26218) -7.81615151E-02                    1_GWF-(1,26381)
         63          2         13      -7.9559275                    1_GWF-(1,26218) -7.32769039E-02                    1_GWF-(1,26506)
         64          2         14      -6.6399168                    1_GWF-(1,26649)  2.97158750E-02                    1_GWF-(1,26551)
         65          2         15      -8.1121911                    1_GWF-(1,26622) -6.70551596E-02                    1_GWF-(1,26381)
         66          2         16      -8.4533189                    1_GWF-(1,26623) -7.82736223E-02                    1_GWF-(1,26506)
         67          2         17      -7.0822490                    1_GWF-(1,26622)  4.21762073E-02                    1_GWF-(1,26551)
         68          2         18       7.0663116                    1_GWF-(1,26422) -7.94476016E-02                    1_GWF-(1,26381)
         69          2         19       7.0719583                    1_GWF-(1,26588) -7.34531750E-02                    1_GWF-(1,26506)
         70          2         20       9.0311748                    1_GWF-(1,26543) -3.93156999E-02                    1_GWF-(1,26447)
         71          2         21       10.394387                    1_GWF-(1,26588) -9.06904340E-02                    1_GWF-(1,26381)
         72          2         22       10.310810                    1_GWF-(1,26543) -6.94201905E-02                    1_GWF-(1,26506)
         73          2         23       7.3801182                    1_GWF-(1,26542) -5.50458033E-02                    1_GWF-(1,26447)
         74          2         24      -7.9108877                    1_GWF-(1,26487) -9.87698043E-02                    1_GWF-(1,26381)
         75          2         25      -10.290140                    1_GWF-(1,26486) -5.40857757E-02                    1_GWF-(1,26506)
         76          2         26      -11.290140                    1_GWF-(1,26487)  8.01716369E-02                    1_GWF-(1,26381)
         77          2         27      -7.8385159                    1_GWF-(1,26486)      0.10255364                    1_GWF-(1,26506)
         78          2         28      -4.5917987                    1_GWF-(1,26477) -5.02281727E-02                    1_GWF-(1,26506)
         79          2         29      -3.0240526                    1_GWF-(1,26649)  3.78969861E-02                    1_GWF-(1,26381)
         80          2         30       3.1940275                    1_GWF-(1,26420)  6.27434987E-02                    1_GWF-(1,26506)
         81          2         31      -2.7735014                    1_GWF-(1,26663) -4.55087736E-02                    1_GWF-(1,26506)
         82          2         32      -2.9674401                    1_GWF-(1,26421) -2.25327071E-02                    1_GWF-(1,26378)
         83          2         33      -3.7857483                    1_GWF-(1,26350) -4.92798386E-02                    1_GWF-(1,26381)
         84          2         34      -2.8025314                    1_GWF-(1,26422) -5.12398417E-02                    1_GWF-(1,26506)
         85          2         35       3.7897675                    1_GWF-(1,26422) -2.46924215E-02                    1_GWF-(1,26378)
         86          2         36       3.2667330                    1_GWF-(1,26350) -3.49187936E-02                    1_GWF-(1,26381)
         87          2         37      -3.0751024                    1_GWF-(1,26350) -4.56693784E-02                    1_GWF-(1,26506)
         88          2         38       2.8366457                    1_GWF-(1,26350) -2.00951328E-02                    1_GWF-(1,26378)
         89          2         39       3.2992413                    1_GWF-(1,26422) -3.02535174E-02                    1_GWF-(1,26381)
         90          2         40       2.1856537                    1_GWF-(1,26350) -4.32285994E-02                    1_GWF-(1,26506)
         91          2         41       1.3632896                    1_GWF-(1,26217)  2.68005990E-02                    1_GWF-(1,26506)
         92          2         42      0.96672295                    1_GWF-(1,26218)  1.54046262E-02                    1_GWF-(1,26378)
         93          2         43       1.0497609                    1_GWF-(1,26663)  2.71407819E-02                    1_GWF-(1,26381)
         94          2         44     -0.90870392                    1_GWF-(1,26217)  2.79534467E-02                    1_GWF-(1,26506)
         95          2         45     -0.75515200                    1_GWF-(1,26192)  1.89954904E-02                     1_GWF-(1,9692)
         96          2         46     -0.64243130                    1_GWF-(1,26242)  3.07657267E-02                     1_GWF-(1,9691)
         97          2         47     -0.76868521                    1_GWF-(1,26218)  3.11093001E-02                     1_GWF-(1,9692)
         98          2         48      -1.0771518                    1_GWF-(1,26217)  5.56989747E-02                     1_GWF-(1,9691)
         99          2         49      0.73801317                    1_GWF-(1,25377) -6.65384275E-02                     1_GWF-(1,9691)
        100          2         50     -0.70321868                    1_GWF-(1,23037)  9.72827955E-02                     1_GWF-(1,9691)
        101          3          1      0.40471229                    1_GWF-(1,26674) -5.04832596E-02                     1_GWF-(1,9691)
        102          3          2      0.53013543                    1_GWF-(1,22782)      0.10828743                     1_GWF-(1,9691)
        103          3          3      0.67953800                    1_GWF-(1,26217) -9.52613096E-02                     1_GWF-(1,9691)
        104          3          4      0.70562540                    1_GWF-(1,26218)  9.41207731E-02                     1_GWF-(1,9691)
        105          3          5      0.41581340                    1_GWF-(1,26422) -9.34304111E-02                     1_GWF-(1,9691)
        106          3          6     -0.37224377                    1_GWF-(1,26217)      0.11485883                     1_GWF-(1,9691)
        107          3          7      0.40961848                    1_GWF-(1,26194) -9.39137218E-02                     1_GWF-(1,9691)
        108          3          8      0.29701449                    1_GWF-(1,26407)  9.27118899E-02                     1_GWF-(1,9691)
        109          3          9      0.41965361                    1_GWF-(1,13206) -8.21090109E-02                     1_GWF-(1,9691)
        110          3         10      0.41711595                    1_GWF-(1,13192)  8.74440916E-02                     1_GWF-(1,9691)
        111          3         11     -0.41756291                    1_GWF-(1,26543) -6.85127100E-02                     1_GWF-(1,9691)
        112          3         12      0.53386009                    1_GWF-(1,26648)  6.67784670E-02                     1_GWF-(1,9691)
        113          3         13     -0.40187736                    1_GWF-(1,26623) -5.31341071E-02                     1_GWF-(1,9691)
        114          3         14     -0.41089360                    1_GWF-(1,26649)  5.10656941E-02                     1_GWF-(1,9691)
        115          3         15     -0.60029695                    1_GWF-(1,26648)  3.47660743E-02                     1_GWF-(1,9692)
        116          3         16     -0.52464565                    1_GWF-(1,26665)  3.51646657E-02                     1_GWF-(1,9691)
        117          3         17     -0.42020873                    1_GWF-(1,26674)  2.02908229E-02                     1_GWF-(1,9692)
        118          3         18      0.28488566                    1_GWF-(1,26647)  1.67484494E-02                     1_GWF-(1,9691)
        119          3         19      0.41360609                    1_GWF-(1,26665)  9.17249791E-03                     1_GWF-(1,9692)
        120          3         20      0.40491071                    1_GWF-(1,26674)  7.70158634E-03                     1_GWF-(1,9691)
        121          3         21      0.20118686                    1_GWF-(1,26422) -7.70586244E-03                    1_GWF-(1,16201)
        122          3         22      0.37541804                    1_GWF-(1,26350)  5.97917619E-03                    1_GWF-(1,10961)
        123          3         23      0.38930053                    1_GWF-(1,26422)  9.60479452E-03                     1_GWF-(1,9691)
        124          3         24      0.52904966                    1_GWF-(1,26420)  9.19589177E-03                     1_GWF-(1,9692)
        125          3         25      0.47931858                    1_GWF-(1,26422)  1.07277470E-02                     1_GWF-(1,9691)
        126          3         26      0.51667769                    1_GWF-(1,26420)  6.39066377E-03                     1_GWF-(1,9692)
        127          3         27      0.43549700                    1_GWF-(1,26487) -5.50781508E-03                    1_GWF-(1,16201)
        128          3         28     -0.41140170                    1_GWF-(1,26544)  7.99552630E-03                     1_GWF-(1,9691)
        129          3         29     -0.55834860                    1_GWF-(1,26486)  7.29981586E-03                     1_GWF-(1,9692)
        130          3         30     -0.40713749                    1_GWF-(1,26544)  7.46002272E-03                     1_GWF-(1,9691)
        131          3         31     -0.37782929                    1_GWF-(1,26486)  4.08572653E-03                    1_GWF-(1,11145)
        132          3         32     -0.35197393                    1_GWF-(1,26588)  3.69699015E-03                    1_GWF-(1,16201)
        133          3         33      0.38094901                    1_GWF-(1,26588)  5.31124293E-03                     1_GWF-(1,9691)
        134          3         34     -0.45494928                    1_GWF-(1,26588)  5.57140464E-03                     1_GWF-(1,9692)
        135          3         35      0.34512944                    1_GWF-(1,26588)  5.78289515E-03                     1_GWF-(1,9691)
        136          3         36      0.25765813                    1_GWF-(1,26665)  4.75160367E-03                    1_GWF-(1,11147)
        137          3         37      0.37756663                    1_GWF-(1,26649)  4.79430794E-03                    1_GWF-(1,11048)
        138          3         38      0.46144494                    1_GWF-(1,26622)  4.32231291E-03                    1_GWF-(1,16201)
        139          3         39     -0.38030050                    1_GWF-(1,26622)  3.91930194E-03                    1_GWF-(1,11133)
        140          3         40     -0.29585858                    1_GWF-(1,26623) -3.98583770E-03                    1_GWF-(1,11149)
        141          3         41     -0.23848274                    1_GWF-(1,26666)  4.15991505E-03                    1_GWF-(1,16201)
        142          3         42     -0.34568103                    1_GWF-(1,26665)  3.42808308E-03                    1_GWF-(1,11152)
        143          3         43     -0.31614947                    1_GWF-(1,26666)  3.66181288E-03                    1_GWF-(1,11135)
        144          3         44     -0.28969574                    1_GWF-(1,26665)  3.56735404E-03                    1_GWF-(1,16201)
        145          3         45      0.29772907                    1_GWF-(1,26665)  4.29677116E-03                    1_GWF-(1,11053)
        146          3         46      0.24164467                    1_GWF-(1,26666) -2.90935709E-03                    1_GWF-(1,11059)
        147          3         47     -0.17363029                    1_GWF-(1,26543) -3.10629398E-03                    1_GWF-(1,11054)
        148          3         48     -0.16862247                    1_GWF-(1,26542)  2.89078761E-03                    1_GWF-(1,10966)
        149          3         49     -0.20091920                    1_GWF-(1,26623)  3.05609062E-03                    1_GWF-(1,11156)
        150          3         50     -0.16910253                    1_GWF-(1,26586)  2.27080273E-03                    1_GWF-(1,11155)
        151          4          1     -0.30341658                    1_GWF-(1,11428) -8.19083419E-03                    1_GWF-(1,10745)
        152          4          2     -0.25257137                    1_GWF-(1,11421) -5.97801293E-03                    1_GWF-(1,15063)
        153          4          3     -0.19753019                    1_GWF-(1,11401)  3.46125970E-03                    1_GWF-(1,15063)
        154          4          4     -0.17565569                    1_GWF-(1,11393)  2.63421973E-03                    1_GWF-(1,15062)
        155          4          5     -0.14563792                    1_GWF-(1,11403)  2.63840181E-03                    1_GWF-(1,15067)
        156          4          6 -9.62160635E-02                    1_GWF-(1,11318)  2.72811711E-03                    1_GWF-(1,15063)
        157          4          7      0.11226527                    1_GWF-(1,11403)  2.78985058E-03                    1_GWF-(1,10651)
        158          4          8     -0.10679174                    1_GWF-(1,26665) -2.60384088E-03                    1_GWF-(1,15062)
        159          4          9      0.11381325                    1_GWF-(1,26665) -2.71697287E-03                    1_GWF-(1,15067)
        160          4         10     -0.13996802                    1_GWF-(1,26665) -2.22996877E-03                    1_GWF-(1,15058)
        161          4         11      0.12411929                    1_GWF-(1,26665) -2.04077940E-03                    1_GWF-(1,15062)
        162          4         12 -7.09394593E-02                    1_GWF-(1,26665) -2.33960901E-03                    1_GWF-(1,15067)
        163          4         13 -7.91705565E-02                    1_GWF-(1,26622) -1.80298295E-03                    1_GWF-(1,15058)
        164          4         14  8.17641298E-02                    1_GWF-(1,26622) -8.63345251E-04                    1_GWF-(1,15070)
        165          4         15  6.42428422E-02                    1_GWF-(1,26649)  9.95177176E-04                    1_GWF-(1,15058)
        166          4         16  5.43635785E-02                    1_GWF-(1,26622) -1.24349804E-03                    1_GWF-(1,15058)
        167          4         17 -4.20401627E-02                    1_GWF-(1,26218) -1.22449818E-03                    1_GWF-(1,15079)
        168          4         18 -5.19929976E-02                    1_GWF-(1,26588)  1.31400256E-03                    1_GWF-(1,15069)
        169          4         19  6.24228214E-02                    1_GWF-(1,26588) -1.24165480E-03                    1_GWF-(1,15058)
        170          4         20 -7.97739606E-02                    1_GWF-(1,26588)  1.04016207E-03                    1_GWF-(1,10961)
        171          4         21 -6.09070785E-02                    1_GWF-(1,26543)  9.24281193E-04                    1_GWF-(1,15069)
        172          4         22 -4.21852604E-02                    1_GWF-(1,26588) -1.01307839E-03                    1_GWF-(1,10961)
        173          4         23 -4.21139424E-02                    1_GWF-(1,26486) -1.12611085E-03                    1_GWF-(1,15079)
        174          4         24  5.05865832E-02                    1_GWF-(1,26486) -1.07203693E-03                    1_GWF-(1,15078)
        175          4         25 -6.12604398E-02                    1_GWF-(1,26486)  7.57860884E-04                    1_GWF-(1,10959)
        176          4         26 -5.73382911E-02                    1_GWF-(1,26487) -1.14009170E-03                    1_GWF-(1,15079)
        177          4         27 -5.37939842E-02                    1_GWF-(1,26420) -1.43681031E-03                    1_GWF-(1,15078)
        178          4         28 -5.71734120E-02                    1_GWF-(1,26422)  1.38091167E-03                    1_GWF-(1,15078)
        179          4         29 -5.77015848E-02                    1_GWF-(1,26350)  1.11015449E-03                    1_GWF-(1,15083)
        180          4         30 -4.93496365E-02                    1_GWF-(1,26422)  8.63922162E-04                     1_GWF-(1,5697)
        181          4         31  5.65451160E-02                    1_GWF-(1,26422)  1.09576701E-03                    1_GWF-(1,15078)
        182          4         32  4.76839860E-02                    1_GWF-(1,26350)  1.08371614E-03                    1_GWF-(1,15083)
        183          4         33  3.90937592E-02                    1_GWF-(1,26421) -8.82380064E-04                    1_GWF-(1,15083)
        184          4         34  3.01835535E-02                    1_GWF-(1,26350) -7.88382440E-04                    1_GWF-(1,11145)
        185          4         35 -2.66750607E-02                    1_GWF-(1,11459) -7.06146370E-04                    1_GWF-(1,11148)
        186          4         36 -2.53894842E-02                    1_GWF-(1,11365)  1.03179248E-03                     1_GWF-(1,9691)
        187          4         37 -1.68063413E-02                    1_GWF-(1,11366)  1.09314368E-03                     1_GWF-(1,9692)
        188          4         38  2.94277973E-02                    1_GWF-(1,11454)  1.64170990E-03                     1_GWF-(1,9691)
        189          4         39 -1.80407698E-02                    1_GWF-(1,26217)  1.70719353E-03                     1_GWF-(1,9692)
        190          4         40 -1.90723980E-02                    1_GWF-(1,11380)  2.64565045E-03                     1_GWF-(1,9691)
        191          4         41 -1.40430284E-02                    1_GWF-(1,13539) -2.53803539E-03                     1_GWF-(1,9691)
        192          4         42  1.22628807E-02                    1_GWF-(1,11369)  3.39719875E-03                     1_GWF-(1,9691)
        193          4         43 -1.37976950E-02                    1_GWF-(1,11369) -3.18998291E-03                     1_GWF-(1,9691)
        194          4         44  1.18703268E-02                    1_GWF-(1,11453)  3.48666333E-03                     1_GWF-(1,9691)
        195          4         45  1.09124270E-02                    1_GWF-(1,26218) -3.20043664E-03                     1_GWF-(1,9691)
        196          4         46 -7.32792809E-03                    1_GWF-(1,14224)  3.47179299E-03                     1_GWF-(1,9691)
        197          4         47  7.64682298E-03                    1_GWF-(1,11701) -2.81331391E-03                     1_GWF-(1,9691)
        198          4         48  7.07634589E-03                    1_GWF-(1,11454)  3.08137694E-03                     1_GWF-(1,9691)
        199          4         49  7.50932850E-03                    1_GWF-(1,11381) -2.39968297E-03                     1_GWF-(1,9691)
        200          4         50  9.15574248E-03                    1_GWF-(1,11458)  2.50664124E-03                     1_GWF-(1,9691)
        201          5          1 -5.27659585E-02                    1_GWF-(1,11378)  9.38457715E-04                     1_GWF-(1,9692)
        202          5          2 -3.39373854E-02                    1_GWF-(1,11369)  2.74803535E-03                     1_GWF-(1,9691)
        203          5          3 -1.96994324E-02                    1_GWF-(1,11454) -2.93159593E-03                     1_GWF-(1,9691)
        204          5          4  2.01646909E-02                    1_GWF-(1,11367)  2.68426351E-03                     1_GWF-(1,9691)
        205          5          5 -2.17945221E-02                    1_GWF-(1,11373) -2.45723507E-03                     1_GWF-(1,9691)
        206          5          6  1.84421448E-02                    1_GWF-(1,11373)  2.82872203E-03                     1_GWF-(1,9691)
        207          5          7  2.66172000E-02                    1_GWF-(1,11378) -2.16867123E-03                     1_GWF-(1,9691)
        208          5          8  1.92890883E-02                    1_GWF-(1,11368)  2.04975244E-03                     1_GWF-(1,9691)
        209          5          9 -1.53035147E-02                    1_GWF-(1,11368) -1.81752529E-03                     1_GWF-(1,9691)
        210          5         10 -1.67286375E-02                    1_GWF-(1,11451)  1.75579194E-03                     1_GWF-(1,9691)
        211          5         11 -2.28164891E-02                    1_GWF-(1,11378) -1.07791046E-03                     1_GWF-(1,9691)
        212          5         12 -1.87890549E-02                    1_GWF-(1,11368)  1.01894911E-03                     1_GWF-(1,9691)
        213          5         13 -1.60238536E-02                    1_GWF-(1,11451)  6.53043830E-04                     1_GWF-(1,9692)
        214          5         14  1.43616956E-02                    1_GWF-(1,11451)  6.29989592E-04                     1_GWF-(1,9691)
        215          5         15  1.48995361E-02                    1_GWF-(1,11452)  3.74789803E-04                     1_GWF-(1,9692)
        216          5         16  1.21630247E-02                    1_GWF-(1,11368)  2.98217180E-04                     1_GWF-(1,9691)
        217          5         17 -8.65911525E-03                    1_GWF-(1,26487)  1.90855118E-04                    1_GWF-(1,10651)
        218          5         18 -1.24612694E-02                    1_GWF-(1,26486)  1.58348390E-04                    1_GWF-(1,11352)
        219          5         19 -1.04651628E-02                    1_GWF-(1,26588) -2.98048315E-04                    1_GWF-(1,10651)
        220          5         20 -8.65034678E-03                    1_GWF-(1,26543) -2.40670286E-04                    1_GWF-(1,10652)
        221          5         21 -8.49720545E-03                    1_GWF-(1,11454) -2.44292711E-04                    1_GWF-(1,10651)
        222          5         22 -8.99168435E-03                    1_GWF-(1,11452)  1.28426627E-04                    1_GWF-(1,15078)
        223          5         23 -8.05441359E-03                    1_GWF-(1,11415)  9.81022417E-05                    1_GWF-(1,11132)
        224          5         24  6.86294778E-03                    1_GWF-(1,26421)  1.43388312E-04                    1_GWF-(1,11352)
        225          5         25  7.67947687E-03                    1_GWF-(1,26350) -1.16504832E-04                    1_GWF-(1,14801)
        226          5         26  8.54861053E-03                    1_GWF-(1,26486)  1.78396653E-04                     1_GWF-(1,9691)
        227          5         27  7.02250961E-03                    1_GWF-(1,26544)  1.31663723E-04                     1_GWF-(1,9692)
        228          5         28  6.65027783E-03                    1_GWF-(1,26486)  9.12225929E-05                     1_GWF-(1,9691)
        229          5         29  6.34431593E-03                    1_GWF-(1,26622) -1.09470414E-04                    1_GWF-(1,10651)
        230          5         30  5.82284292E-03                    1_GWF-(1,26649)  1.22615145E-04                     1_GWF-(1,9692)
        231          5         31  5.28006613E-03                    1_GWF-(1,26422)  1.83200654E-04                     1_GWF-(1,9691)
        232          5         32 -5.87213561E-03                    1_GWF-(1,26422)  1.20903289E-04                     1_GWF-(1,9692)
        233          5         33 -5.26841283E-03                    1_GWF-(1,26350)  1.20390925E-04                     1_GWF-(1,9691)
        234          5         34 -4.67245632E-03                    1_GWF-(1,26422)  9.03735428E-05                    1_GWF-(1,10966)
        235          5         35 -5.47060584E-03                    1_GWF-(1,26588)  9.97304847E-05                    1_GWF-(1,10651)
        236          5         36  5.99807402E-03                    1_GWF-(1,26588)  7.56936706E-05                    1_GWF-(1,11352)
        237          5         37 -7.15408569E-03                    1_GWF-(1,26588)  8.01348854E-05                    1_GWF-(1,11351)
        238          5         38 -5.20830744E-03                    1_GWF-(1,26589)  9.92793117E-05                     1_GWF-(1,9691)
        239          5         39 -5.47426922E-03                    1_GWF-(1,26588) -1.31206967E-04                    1_GWF-(1,10651)
        240          5         40 -5.22449837E-03                    1_GWF-(1,26665)  1.26319734E-04                    1_GWF-(1,10651)
        241          5         41  6.01585575E-03                    1_GWF-(1,26665)  1.16601535E-04                    1_GWF-(1,10652)
        242          5         42 -6.07802203E-03                    1_GWF-(1,26665)  1.19639085E-04                    1_GWF-(1,10651)
        243          5         43  6.07214033E-03                    1_GWF-(1,26665)  1.05101719E-04                    1_GWF-(1,10651)
        244          5         44 -4.04641504E-03                    1_GWF-(1,26665)  9.29632187E-05                    1_GWF-(1,10652)
        245          5         45 -2.82675171E-03                    1_GWF-(1,26663)  1.39206570E-04                    1_GWF-(1,10651)
        246          5         46  3.08837322E-03                    1_GWF-(1,11305)  1.00457089E-04                    1_GWF-(1,10652)
        247          5         47  2.60054884E-03                    1_GWF-(1,11409)  1.00818623E-04                    1_GWF-(1,10651)
        248          5         48  2.73297555E-03                    1_GWF-(1,11413) -1.21507898E-04                    1_GWF-(1,10651)
        249          5         49  2.15747733E-03                    1_GWF-(1,26217)  1.38210482E-04                    1_GWF-(1,10651)
        250          5         50 -2.92679995E-03                     1_GWF-(1,8033)  1.09858674E-04                    1_GWF-(1,10652)
        251          6          1 -5.61444489E-03                    1_GWF-(1,11374)  1.01883163E-04                    1_GWF-(1,10651)
        252          6          2 -2.28108248E-03                    1_GWF-(1,11436) -1.05486735E-04                    1_GWF-(1,10651)
        253          6          3 -2.37349004E-03                    1_GWF-(1,26218)  1.25824986E-04                    1_GWF-(1,10651)
        254          6          4 -2.77061221E-03                    1_GWF-(1,11374) -7.11458370E-05                    1_GWF-(1,10653)
        255          6          5 -2.36775253E-03                    1_GWF-(1,26218)  9.11084026E-05                    1_GWF-(1,10653)
        256          6          6 -2.08950273E-03                    1_GWF-(1,26217)  5.69193196E-05                    1_GWF-(1,10652)
        257          6          7  2.05358656E-03                    1_GWF-(1,11316)  5.91591165E-05                    1_GWF-(1,10651)
        258          6          8 -2.69099515E-03                    1_GWF-(1,26665)  4.47416619E-05                    1_GWF-(1,10651)
        259          6          9 -2.68030005E-03                    1_GWF-(1,26666)  4.71190542E-05                    1_GWF-(1,10652)
        260          6         10 -2.68491933E-03                    1_GWF-(1,26665)  4.13613876E-05                    1_GWF-(1,10651)
        261          6         11  1.92986405E-03                    1_GWF-(1,26665) -4.98475161E-05                    1_GWF-(1,10651)
        262          6         12  1.41992023E-03                    1_GWF-(1,26588) -3.31656669E-05                    1_GWF-(1,10652)
        263          6         13  1.52322020E-03                    1_GWF-(1,26589)  1.84854010E-05                    1_GWF-(1,15188)
        264          6         14  2.29868269E-03                    1_GWF-(1,26588) -2.73060938E-05                    1_GWF-(1,10653)
        265          6         15  1.96504716E-03                    1_GWF-(1,26543)  2.21896550E-05                    1_GWF-(1,10653)
        266          6         16  2.02678530E-03                    1_GWF-(1,26588)  2.18007124E-05                    1_GWF-(1,10966)
        267          6         17 -1.15043916E-03                    1_GWF-(1,26420) -2.36512176E-05                    1_GWF-(1,10966)
        268          6         18 -1.27186515E-03                    1_GWF-(1,26422) -3.02908930E-05                    1_GWF-(1,15080)
        269          6         19  1.38978486E-03                    1_GWF-(1,26422) -3.28322493E-05                    1_GWF-(1,10651)
        270          6         20  1.30951436E-03                    1_GWF-(1,26350) -3.02568249E-05                    1_GWF-(1,10652)
        271          6         21 -1.21726895E-03                    1_GWF-(1,26649) -3.57038484E-05                    1_GWF-(1,10651)
        272          6         22 -1.50727895E-03                    1_GWF-(1,26622)  1.45189997E-05                    1_GWF-(1,10864)
        273          6         23 -1.62525354E-03                    1_GWF-(1,26649)  2.34442618E-05                    1_GWF-(1,10651)
        274          6         24 -1.51529186E-03                    1_GWF-(1,26544) -4.21145130E-05                    1_GWF-(1,10651)
        275          6         25 -1.67260850E-03                    1_GWF-(1,26486) -2.94409073E-05                    1_GWF-(1,10652)
        276          6         26 -1.52997862E-03                    1_GWF-(1,26350) -1.94095648E-05                    1_GWF-(1,10653)
        277          6         27 -1.29593121E-03                    1_GWF-(1,26422)  1.50252033E-05                    1_GWF-(1,11039)
        278          6         28  9.48366972E-04                    1_GWF-(1,26486) -2.09680387E-05                    1_GWF-(1,10652)
        279          6         29  9.38695653E-04                    1_GWF-(1,26420) -2.50614325E-05                    1_GWF-(1,10651)
        280          6         30  1.19865912E-03                    1_GWF-(1,26421) -2.42706040E-05                    1_GWF-(1,10632)
        281          6         31  1.10843538E-03                    1_GWF-(1,26217) -4.80188124E-05                    1_GWF-(1,10651)
        282          6         32  9.79890734E-04                    1_GWF-(1,26421)  2.95457332E-05                    1_GWF-(1,10653)
        283          6         33  9.33782272E-04                    1_GWF-(1,26420)  2.41870249E-05                    1_GWF-(1,10652)
        284          6         34  8.68331093E-04                    1_GWF-(1,26487)  1.26657757E-05                     1_GWF-(1,9692)
        285          6         35  8.89011231E-04                    1_GWF-(1,26486)  1.45665983E-05                    1_GWF-(1,10653)
        286          6         36 -6.28882521E-04                    1_GWF-(1,26486)  2.07087586E-05                     1_GWF-(1,9691)
        287          6         37  4.24302559E-04                    1_GWF-(1,11369)  2.78668187E-05                    1_GWF-(1,10651)
        288          6         38  6.28337964E-04                    1_GWF-(1,11454)  3.71280289E-05                     1_GWF-(1,9691)
        289          6         39  6.49807354E-04                    1_GWF-(1,11368) -4.02124860E-05                     1_GWF-(1,9691)
        290          6         40  5.68315450E-04                    1_GWF-(1,11378)  5.89124044E-05                     1_GWF-(1,9691)
        291          6         41 -5.30730080E-04                    1_GWF-(1,11378) -6.31598597E-05                     1_GWF-(1,9691)
        292          6         42 -4.82382412E-04                    1_GWF-(1,11450)  8.24225491E-05                     1_GWF-(1,9691)
        293          6         43 -4.98144272E-04                    1_GWF-(1,11368) -8.77975100E-05                     1_GWF-(1,9691)
        294          6         44 -4.66502841E-04                    1_GWF-(1,11378)  1.00370009E-04                     1_GWF-(1,9691)
        295          6         45 -3.76392475E-04                    1_GWF-(1,11373) -9.68838056E-05                     1_GWF-(1,9691)
        296          6         46  4.84152708E-04                    1_GWF-(1,11373)  1.11652611E-04                     1_GWF-(1,9691)
        297          6         47 -4.47115332E-04                    1_GWF-(1,11369) -1.05636416E-04                     1_GWF-(1,9691)
        298          6         48  4.65586365E-04                    1_GWF-(1,11451)  1.06746604E-04                     1_GWF-(1,9691)
        299          6         49  7.25194105E-04                    1_GWF-(1,11369) -6.80169178E-05                     1_GWF-(1,9691)
        300          6         50  9.73762707E-04                    1_GWF-(1,11378)  8.87629740E-05                     1_GWF-(1,9691)
        301          7          1 -1.08860251E-03                    1_GWF-(1,11378) -6.75175462E-05                     1_GWF-(1,9691)
        302          7          2 -6.40668519E-04                    1_GWF-(1,11369)  8.93778388E-05                     1_GWF-(1,9691)
        303          7          3 -4.58481657E-04                    1_GWF-(1,11451) -8.51704749E-05                     1_GWF-(1,9691)
        304          7          4  3.37355582E-04                    1_GWF-(1,11369)  8.70581458E-05                     1_GWF-(1,9691)
        305          7          5 -4.03994635E-04                    1_GWF-(1,11373) -6.97867177E-05                     1_GWF-(1,9691)
        306          7          6  3.67875459E-04                    1_GWF-(1,11373)  6.69778315E-05                     1_GWF-(1,9691)
        307          7          7  2.99492023E-04                    1_GWF-(1,11378) -5.66647431E-05                     1_GWF-(1,9691)
        308          7          8  2.75233023E-04                    1_GWF-(1,11368)  5.33033724E-05                     1_GWF-(1,9691)
        309          7          9  2.67886722E-04                    1_GWF-(1,11373) -3.94982204E-05                     1_GWF-(1,9691)
        310          7         10 -2.38532947E-04                    1_GWF-(1,11373)  3.39235312E-05                     1_GWF-(1,9691)
        311          7         11 -3.11857727E-04                    1_GWF-(1,11378)  2.10778265E-05                     1_GWF-(1,9692)
        312          7         12 -2.86058176E-04                    1_GWF-(1,11368)  1.95958353E-05                     1_GWF-(1,9691)
        313          7         13 -2.55087726E-04                    1_GWF-(1,11451)  9.55228996E-06                     1_GWF-(1,9692)
        314          7         14 -3.38801857E-04                    1_GWF-(1,26588)  5.91161766E-06                    1_GWF-(1,10654)
        315          7         15 -3.62771846E-04                    1_GWF-(1,26543)  8.30955114E-06                     1_GWF-(1,9691)
        316          7         16 -4.25074813E-04                    1_GWF-(1,26588)  9.29340793E-06                     1_GWF-(1,9692)
        317          7         17  2.99269769E-04                    1_GWF-(1,26588)  1.05814974E-05                     1_GWF-(1,9691)
        318          7         18 -2.28034574E-04                    1_GWF-(1,26588)  9.67431424E-06                    1_GWF-(1,10653)
        319          7         19 -2.47162838E-04                    1_GWF-(1,26486) -1.04075945E-05                    1_GWF-(1,10651)
        320          7         20 -3.02900943E-04                    1_GWF-(1,26487) -5.80987326E-06                    1_GWF-(1,10654)
        321          7         21 -4.05317985E-04                    1_GWF-(1,26486)  4.27624818E-06                     1_GWF-(1,9692)
        322          7         22 -3.45305647E-04                    1_GWF-(1,26487) -7.27000875E-06                    1_GWF-(1,10651)
        323          7         23 -2.19089639E-04                    1_GWF-(1,26420) -5.69036183E-06                    1_GWF-(1,10654)
        324          7         24  1.97591857E-04                    1_GWF-(1,26420) -6.39513353E-06                    1_GWF-(1,10653)
        325          7         25  1.95049673E-04                    1_GWF-(1,26421)  3.28989578E-06                    1_GWF-(1,11058)
        326          7         26  1.62724999E-04                    1_GWF-(1,26420)  3.27819111E-06                    1_GWF-(1,10959)
        327          7         27  2.13772438E-04                    1_GWF-(1,26486)  3.72047017E-06                    1_GWF-(1,10966)
        328          7         28  1.82527151E-04                    1_GWF-(1,26544)  3.08580198E-06                     1_GWF-(1,9692)
        329          7         29  2.06614592E-04                    1_GWF-(1,26486) -3.92967549E-06                    1_GWF-(1,10653)
        330          7         30  1.73895401E-04                    1_GWF-(1,26622)  2.33738636E-06                     1_GWF-(1,9692)
        331          7         31  2.14801920E-04                    1_GWF-(1,26649)  3.45399519E-06                    1_GWF-(1,10961)
        332          7         32  1.75562663E-04                    1_GWF-(1,26622) -3.97570520E-06                    1_GWF-(1,10653)
        333          7         33  1.64305045E-04                    1_GWF-(1,26649)  3.78701215E-06                    1_GWF-(1,10653)
        334          7         34  1.79738869E-04                    1_GWF-(1,26422)  3.65776249E-06                     1_GWF-(1,9691)
        335          7         35  1.70773781E-04                    1_GWF-(1,26350)  3.12827717E-06                     1_GWF-(1,9692)
        336          7         36  1.39793242E-04                    1_GWF-(1,26422)  2.47008538E-06                     1_GWF-(1,9691)
        337          7         37 -1.26832591E-04                    1_GWF-(1,26665) -2.05589462E-06                    1_GWF-(1,10961)
        338          7         38 -1.40114278E-04                    1_GWF-(1,26623) -1.95551860E-06                    1_GWF-(1,10658)
        339          7         39 -1.58360431E-04                    1_GWF-(1,26665) -3.07806470E-06                    1_GWF-(1,10653)
        340          7         40 -1.28270468E-04                    1_GWF-(1,26666)  1.89289731E-06                    1_GWF-(1,10653)
        341          7         41 -1.40763091E-04                    1_GWF-(1,26350)  3.24569601E-06                     1_GWF-(1,9691)
        342          7         42 -1.42247232E-04                    1_GWF-(1,26422)  2.50263275E-06                     1_GWF-(1,9692)
        343          7         43 -1.24742461E-04                    1_GWF-(1,26350)  3.30223510E-06                    1_GWF-(1,10653)
        344          7         44 -1.06332642E-04                    1_GWF-(1,26422)  2.90703140E-06                    1_GWF-(1,10654)
        345          7         45  7.21065545E-05                    1_GWF-(1,26217)  4.21527798E-06                    1_GWF-(1,10653)
        346          7         46  7.89020379E-05                    1_GWF-(1,11305) -3.06879367E-06                    1_GWF-(1,10653)
        347          7         47  8.38608258E-05                    1_GWF-(1,26422)  3.99092363E-06                    1_GWF-(1,10653)
        348          7         48  8.56902590E-05                    1_GWF-(1,26218) -3.46224422E-06                    1_GWF-(1,10653)
        349          7         49  6.86223131E-05                    1_GWF-(1,26217)  4.65212082E-06                    1_GWF-(1,10653)
        350          7         50  1.01494435E-04                    1_GWF-(1,11374) -4.21725456E-06                    1_GWF-(1,10653)
        351          8          1 -9.81777720E-05                    1_GWF-(1,11374)  4.41323958E-06                    1_GWF-(1,10653)
        352          8          2 -6.53899585E-05                    1_GWF-(1,11436)  3.35058237E-06                    1_GWF-(1,10654)
        353          8          3 -7.69663318E-05                    1_GWF-(1,26218)  3.83075941E-06                    1_GWF-(1,10653)
        354          8          4 -7.13307606E-05                    1_GWF-(1,26217) -3.07699238E-06                    1_GWF-(1,10653)
        355          8          5 -6.87409753E-05                    1_GWF-(1,26218)  3.41677801E-06                    1_GWF-(1,10653)
        356          8          6 -5.43099354E-05                    1_GWF-(1,26217)  2.01714778E-06                    1_GWF-(1,10654)
        357          8          7  6.12980993E-05                    1_GWF-(1,11316)  1.78893208E-06                    1_GWF-(1,10653)
        358          8          8 -6.88843153E-05                    1_GWF-(1,26622)  1.27485020E-06                    1_GWF-(1,10651)
        359          8          9 -7.76688859E-05                    1_GWF-(1,26588)  1.25745320E-06                    1_GWF-(1,10658)
        360          8         10 -6.82619492E-05                    1_GWF-(1,26622)  1.13088352E-06                    1_GWF-(1,10653)
        361          8         11  4.73571726E-05                    1_GWF-(1,26350) -1.04515121E-06                    1_GWF-(1,10653)
        362          8         12  5.61703412E-05                    1_GWF-(1,26422)  8.98351574E-07                     1_GWF-(1,9691)
        363          8         13  4.97962937E-05                    1_GWF-(1,26350) -6.67396892E-07                     1_GWF-(1,9691)
        364          8         14 -5.63001900E-05                    1_GWF-(1,26350) -1.48212193E-06                    1_GWF-(1,10653)
        365          8         15 -5.80307045E-05                    1_GWF-(1,26422)  9.28074300E-07                    1_GWF-(1,10653)
        366          8         16 -5.73751963E-05                    1_GWF-(1,26420)  6.52929961E-07                    1_GWF-(1,11109)
        367          8         17 -5.66879158E-05                    1_GWF-(1,26487) -9.38305310E-07                    1_GWF-(1,10966)
        368          8         18 -6.07248721E-05                    1_GWF-(1,26486) -7.44687185E-07                    1_GWF-(1,10961)
        369          8         19 -5.60993962E-05                    1_GWF-(1,26487) -9.96702428E-07                    1_GWF-(1,10653)
        370          8         20 -6.21876333E-05                    1_GWF-(1,26486)  8.18791953E-07                    1_GWF-(1,10961)
        371          8         21 -5.11176439E-05                    1_GWF-(1,26622)  5.93127592E-07                    1_GWF-(1,11044)
        372          8         22 -4.36685086E-05                    1_GWF-(1,26623) -7.45594827E-07                    1_GWF-(1,10653)
        373          8         23 -3.76235009E-05                    1_GWF-(1,26588) -1.01267303E-06                    1_GWF-(1,10654)
        374          8         24 -4.63586312E-05                    1_GWF-(1,26350) -1.28215691E-06                    1_GWF-(1,10653)
        375          8         25 -4.36823623E-05                    1_GWF-(1,26422) -6.76942002E-07                    1_GWF-(1,10652)
        376          8         26  4.42738879E-05                    1_GWF-(1,26588)  5.64724959E-07                    1_GWF-(1,11058)
        377          8         27  3.80862405E-05                    1_GWF-(1,26589) -8.73533470E-07                    1_GWF-(1,10653)
        378          8         28  3.98548322E-05                    1_GWF-(1,26588) -7.44944759E-07                    1_GWF-(1,10658)
        379          8         29  3.73221916E-05                    1_GWF-(1,26665)  7.70273295E-07                     1_GWF-(1,9691)
        380          8         30  4.06853399E-05                    1_GWF-(1,26350)  5.71483026E-07                     1_GWF-(1,9692)
        381          8         31  4.12124038E-05                    1_GWF-(1,26421)  4.40564013E-07                    1_GWF-(1,15078)
        382          8         32  3.33315518E-05                    1_GWF-(1,26420) -5.86537465E-07                    1_GWF-(1,10651)
        383          8         33  2.86828360E-05                    1_GWF-(1,26421)  9.81558346E-07                    1_GWF-(1,10651)
        384          8         34  1.79889702E-05                    1_GWF-(1,26420) -8.38107788E-07                    1_GWF-(1,10653)
        385          8         35 -1.92702240E-05                    1_GWF-(1,11369)  1.04043938E-06                    1_GWF-(1,10653)
        386          8         36 -1.71500143E-05                    1_GWF-(1,11378)  8.77884108E-07                     1_GWF-(1,9691)
        387          8         37 -1.55534299E-05                    1_GWF-(1,26217)  8.51536318E-07                    1_GWF-(1,10653)
        388          8         38  1.91781570E-05                    1_GWF-(1,11451)  1.26033898E-06                     1_GWF-(1,9691)
        389          8         39  1.55145278E-05                    1_GWF-(1,11368) -1.28100848E-06                     1_GWF-(1,9691)
        390          8         40  1.43333576E-05                    1_GWF-(1,11378)  1.91773232E-06                     1_GWF-(1,9691)
        391          8         41 -1.46441839E-05                    1_GWF-(1,11378) -2.07359220E-06                     1_GWF-(1,9691)
        392          8         42 -1.35282609E-05                    1_GWF-(1,11373)  2.66737089E-06                     1_GWF-(1,9691)
        393          8         43  1.25780924E-05                     1_GWF-(1,8106) -2.42789271E-06                     1_GWF-(1,9691)
        394          8         44 -1.43075599E-05                    1_GWF-(1,26649)  1.69568302E-06                     1_GWF-(1,9691)
        395          8         45  1.66919624E-05                    1_GWF-(1,26487)  3.27197345E-07                    1_GWF-(1,10654)
        396          8         46  1.58687019E-05                    1_GWF-(1,26486)  1.45149906E-06                     1_GWF-(1,9692)
        397          8         47 -1.44155978E-05                    1_GWF-(1,11454)  2.65587245E-06                     1_GWF-(1,9691)
        398          8         48 -1.74485717E-05                    1_GWF-(1,11373) -2.96192665E-06                     1_GWF-(1,9691)
        399          8         49  1.56159183E-05                    1_GWF-(1,11369)  3.11734038E-06                     1_GWF-(1,9691)
        400          8         50  2.77849755E-05                    1_GWF-(1,11378) -3.15192021E-06                     1_GWF-(1,9691)
        401          9          1 -1.88869799E-05                    1_GWF-(1,11378)  4.59331530E-06                     1_GWF-(1,9691)
        402          9          2 -1.14281747E-05                    1_GWF-(1,11378) -3.20298890E-06                     1_GWF-(1,9691)
        403          9          3  1.66673655E-05                    1_GWF-(1,11378)  1.59156568E-06                     1_GWF-(1,9691)
        404          9          4 -1.67420568E-05                    1_GWF-(1,26649)  4.76710859E-07                     1_GWF-(1,9691)
        405          9          5 -1.86320401E-05                    1_GWF-(1,26622) -1.56618511E-06                     1_GWF-(1,9691)
        406          9          6  1.32100144E-05                    1_GWF-(1,26622)  2.06648452E-06                     1_GWF-(1,9691)
        407          9          7  8.68352511E-06                    1_GWF-(1,26649) -2.03578788E-06                     1_GWF-(1,9691)
        408          9          8 -9.08886705E-06                     1_GWF-(1,8106)  1.96636016E-06                     1_GWF-(1,9691)
        409          9          9  9.88128202E-06                    1_GWF-(1,26588) -1.35981415E-06                     1_GWF-(1,9691)
        410          9         10  1.08779001E-05                    1_GWF-(1,26543)  7.69061376E-07                     1_GWF-(1,9691)
        411          9         11  1.24050619E-05                    1_GWF-(1,26487)  2.31044731E-07                    1_GWF-(1,10653)
        412          9         12  1.47102657E-05                    1_GWF-(1,26486)  7.50591243E-07                     1_GWF-(1,9692)
        413          9         13  1.15699243E-05                    1_GWF-(1,26487)  1.03350591E-06                     1_GWF-(1,9691)
        414          9         14  7.95102086E-06                    1_GWF-(1,26486) -6.96463042E-07                     1_GWF-(1,9691)
        415          9         15  6.34966756E-06                    1_GWF-(1,26487)  6.15768614E-07                     1_GWF-(1,9691)
        416          9         16  6.64396204E-06                    1_GWF-(1,11369)  3.50545281E-07                     1_GWF-(1,9692)
        417          9         17 -7.48972539E-06                    1_GWF-(1,26666)  2.12234429E-07                    1_GWF-(1,10652)
        418          9         18 -1.00347902E-05                    1_GWF-(1,26665)  2.15250041E-07                     1_GWF-(1,9691)
        419          9         19  9.78686928E-06                    1_GWF-(1,26665)  3.47340963E-07                     1_GWF-(1,9692)
        420          9         20 -8.71605141E-06                    1_GWF-(1,26487)  4.78370262E-07                     1_GWF-(1,9691)
        421          9         21 -8.49802208E-06                    1_GWF-(1,26420)  3.05373752E-07                     1_GWF-(1,9692)
        422          9         22 -6.38011817E-06                    1_GWF-(1,26421) -3.22374070E-07                    1_GWF-(1,10651)
        423          9         23 -5.37674526E-06                    1_GWF-(1,26420) -2.15178895E-07                    1_GWF-(1,10632)
        424          9         24  6.77735306E-06                    1_GWF-(1,26420) -1.73954472E-07                    1_GWF-(1,10653)
        425          9         25 -8.49156368E-06                    1_GWF-(1,26665)  1.35651428E-07                     1_GWF-(1,9691)
        426          9         26 -7.01506627E-06                    1_GWF-(1,26666)  1.56587145E-07                     1_GWF-(1,9692)
        427          9         27 -5.75834435E-06                    1_GWF-(1,26665) -2.12100188E-07                    1_GWF-(1,10653)
        428          9         28  4.68396733E-06                    1_GWF-(1,26665)  2.04412286E-07                    1_GWF-(1,10651)
        429          9         29  3.72491985E-06                    1_GWF-(1,25507) -1.97246812E-07                    1_GWF-(1,10653)
        430          9         30  4.02983244E-06                    1_GWF-(1,26588) -9.73115080E-08                    1_GWF-(1,10658)
        431          9         31  4.52929556E-06                    1_GWF-(1,26589)  8.83726891E-08                     1_GWF-(1,9691)
        432          9         32  4.67301015E-06                    1_GWF-(1,26588)  1.02338523E-07                    1_GWF-(1,11058)
        433          9         33  4.45298351E-06                    1_GWF-(1,26420) -9.74900259E-08                    1_GWF-(1,10966)
        434          9         34  5.82019234E-06                    1_GWF-(1,26422) -1.09288869E-07                    1_GWF-(1,10650)
        435          9         35  6.19748029E-06                    1_GWF-(1,26420)  1.06620427E-07                    1_GWF-(1,10653)
        436          9         36  5.15504947E-06                    1_GWF-(1,26487)  7.17636194E-08                    1_GWF-(1,11197)
        437          9         37  5.53904944E-06                    1_GWF-(1,26486) -9.25603719E-08                    1_GWF-(1,10653)
        438          9         38 -6.53183608E-06                    1_GWF-(1,26486)  1.30593588E-07                    1_GWF-(1,10653)
        439          9         39 -4.39899770E-06                    1_GWF-(1,26544) -1.51621288E-07                    1_GWF-(1,10653)
        440          9         40 -5.24358420E-06                    1_GWF-(1,26422)  9.65699656E-08                    1_GWF-(1,10653)
        441          9         41 -5.13170616E-06                    1_GWF-(1,26350)  1.09987127E-07                     1_GWF-(1,9691)
        442          9         42 -4.86220934E-06                    1_GWF-(1,26422)  8.97987168E-08                     1_GWF-(1,9692)
        443          9         43  4.70552764E-06                    1_GWF-(1,26622)  9.42618916E-08                    1_GWF-(1,10653)
        444          9         44  5.06160386E-06                    1_GWF-(1,26649)  8.24973284E-08                    1_GWF-(1,10658)
        445          9         45  4.82467546E-06                    1_GWF-(1,26622)  6.48042319E-08                    1_GWF-(1,10653)
        446          9         46 -3.12768312E-06                    1_GWF-(1,26622)  5.68595776E-08                     1_GWF-(1,9691)
        447          9         47  3.11309019E-06                    1_GWF-(1,26350) -6.52680358E-08                    1_GWF-(1,10653)
        448          9         48  3.17601090E-06                    1_GWF-(1,26422)  1.20332543E-07                    1_GWF-(1,10653)
        449          9         49  3.14367855E-06                    1_GWF-(1,26218) -1.21470022E-07                    1_GWF-(1,10653)
        450          9         50  2.51256852E-06                    1_GWF-(1,26217)  1.81321403E-07                    1_GWF-(1,10653)
        451         10          1 -2.99132383E-06                    1_GWF-(1,26217) -2.28030448E-07                    1_GWF-(1,10653)
        452         10          2 -3.51989566E-06                    1_GWF-(1,26218)  1.50250578E-07                    1_GWF-(1,10653)
        453         10          3 -2.97318138E-06                    1_GWF-(1,26422) -7.98700385E-08                    1_GWF-(1,10653)
        454         10          4 -2.74799493E-06                    1_GWF-(1,26350)  5.82785398E-08                    1_GWF-(1,10651)
        455         10          5  2.63954965E-06                    1_GWF-(1,26588)  3.18062374E-08                    1_GWF-(1,10653)
        456         10          6  3.00432663E-06                    1_GWF-(1,26543)  7.32916550E-08                    1_GWF-(1,10654)
        457         10          7 -2.86719199E-06                    1_GWF-(1,26543)  9.74153454E-08                    1_GWF-(1,10653)
        458         10          8  2.11763421E-06                    1_GWF-(1,26218)  5.16445529E-08                    1_GWF-(1,10629)
        459         10          9  2.58302518E-06                    1_GWF-(1,26422)  3.77670855E-08                    1_GWF-(1,11202)
        460         10         10  3.09386822E-06                    1_GWF-(1,26420)  4.64586764E-08                    1_GWF-(1,10653)
        461         10         11  2.86839537E-06                    1_GWF-(1,26487) -5.86725630E-08                    1_GWF-(1,10653)
        462         10         12  2.47311098E-06                    1_GWF-(1,26420) -3.72941472E-08                    1_GWF-(1,11196)
        463         10         13  2.01474289E-06                    1_GWF-(1,26487)  2.77847827E-08                    1_GWF-(1,11196)
        464         10         14  1.79784802E-06                    1_GWF-(1,26486) -5.84895633E-08                    1_GWF-(1,10653)
        465         10         15 -1.82076852E-06                    1_GWF-(1,26422) -3.91175976E-08                    1_GWF-(1,10654)
        466         10         16 -1.68163393E-06                    1_GWF-(1,26350) -4.09361382E-08                    1_GWF-(1,10650)
        467         10         17  1.93158015E-06                    1_GWF-(1,26665) -2.99270895E-08                    1_GWF-(1,10966)
        468         10         18 -2.22011607E-06                    1_GWF-(1,26665)  2.57016673E-08                    1_GWF-(1,11197)
        469         10         19  1.63156482E-06                    1_GWF-(1,26665)  2.97279274E-08                     1_GWF-(1,9691)
        470         10         20 -1.83003815E-06                    1_GWF-(1,26588)  3.13634267E-08                    1_GWF-(1,10653)
        471         10         21 -1.57591417E-06                    1_GWF-(1,26589) -3.43440301E-08                    1_GWF-(1,10653)
        472         10         22 -1.74625850E-06                    1_GWF-(1,26623)  2.34282865E-08                    1_GWF-(1,11056)
        473         10         23 -1.67352257E-06                    1_GWF-(1,26622)  2.60659607E-08                    1_GWF-(1,10653)
        474         10         24  1.65609466E-06                    1_GWF-(1,26622) -4.02497542E-08                    1_GWF-(1,10651)
        475         10         25 -1.46422395E-06                    1_GWF-(1,26422) -2.77639487E-08                    1_GWF-(1,10652)
        476         10         26 -1.49501603E-06                    1_GWF-(1,26350) -2.69300604E-08                    1_GWF-(1,11197)
        477         10         27 -1.17155744E-06                    1_GWF-(1,26422)  2.36842618E-08                    1_GWF-(1,11052)
        478         10         28  1.04157026E-06                    1_GWF-(1,26486)  2.13016278E-08                    1_GWF-(1,15187)
        479         10         29  7.91573263E-07                    1_GWF-(1,26544) -2.85120900E-08                    1_GWF-(1,10650)
        480         11          1  7.94703299E-07                    1_GWF-(1,26486) -2.40436387E-08                    1_GWF-(1,10654)
 --------------------------------------------------------------------------------------------------------------------------------------



 MEMORY MANAGER TOTAL STORAGE BY DATA TYPE, IN MEGABYTES
 -------------------------------
                    ALLOCATED   
 DATA TYPE           MEMORY     
 -------------------------------
 Character        4.66090000E-02
 Logical          4.40000000E-05
 Integer          5.2037920     
 Real             11.901376     
 -------------------------------
 Total            17.151821     
 -------------------------------


 
 Run end date and time (yyyy/mm/dd hh:mm:ss): 2022/04/25 11:39:42
 Elapsed run time:  0.565 Seconds
 Normal termination of simulation.
