                                   MODFLOW 6
                U.S. GEOLOGICAL SURVEY MODULAR HYDROLOGIC MODEL
                            VERSION 6.2.2 07/30/2021

   MODFLOW 6 compiled Jul 31 2021 14:22:53 with IFORT compiler (ver. 19.10.3)

This software has been approved for release by the U.S. Geological 
Survey (USGS). Although the software has been subjected to rigorous 
review, the USGS reserves the right to update the software as needed 
pursuant to further analysis and review. No warranty, expressed or 
implied, is made by the USGS or the U.S. Government as to the 
functionality of the software and related material nor shall the 
fact of release constitute any such warranty. Furthermore, the 
software is released on condition that neither the USGS nor the U.S. 
Government shall be held liable for any damages resulting from its 
authorized or unauthorized use. Also refer to the USGS Water 
Resources Software User Rights Notice for complete use, copyright, 
and distribution information.


System command used to initiate simulation:
mf6

MODFLOW was compiled using uniform precision.

Real Variables
  KIND: 8
  TINY (smallest non-zero value):    2.225074-308
  HUGE (largest value):    1.797693+308
  PRECISION: 15
  BIT SIZE: 64

Integer Variables
  KIND: 4
  HUGE (largest value): 2147483647
  BIT SIZE: 32

Long Integer Variables
  KIND: 8
  HUGE (largest value): 9223372036854775807
  BIT SIZE: 64

Logical Variables
  KIND: 4
  BIT SIZE: 32
 

 OPENED mfsim.nam
 FILE TYPE:NAM   UNIT 1001   STATUS:OLD                 
 FORMAT:FORMATTED              ACCESS:SEQUENTIAL          
 ACTION:READ                

 # File generated by Flopy version 3.3.5 on 06/01/2022 at 13:19:04.

 READING SIMULATION OPTIONS
 END OF SIMULATION OPTIONS

 READING SIMULATION TIMING

 OPENED mfsim.tdis
 FILE TYPE:TDIS   UNIT 1002   STATUS:OLD                 
 FORMAT:FORMATTED              ACCESS:SEQUENTIAL          
 ACTION:READ                


 TDIS -- TEMPORAL DISCRETIZATION PACKAGE,
 VERSION 1 : 11/13/2014 - INPUT READ FROM UNIT 1002
 # File generated by Flopy version 3.3.5 on 06/01/2022 at 13:19:04.
 PROCESSING TDIS OPTIONS
    SIMULATION TIME UNIT IS SECONDS
 END OF TDIS OPTIONS
 PROCESSING TDIS DIMENSIONS
    1 STRESS PERIOD(S) IN SIMULATION
 END OF TDIS DIMENSIONS
 PROCESSING TDIS PERIODDATA


 STRESS PERIOD     LENGTH       TIME STEPS     MULTIPLIER FOR DELT
 ----------------------------------------------------------------------------
        1         8.000000          1                    1.000
 END OF TDIS PERIODDATA
 END OF SIMULATION TIMING

 READING SIMULATION MODELS
    GWF6 model ML will be created as model 1
 END OF SIMULATION MODELS

 READING SIMULATION EXCHANGES
 END OF SIMULATION EXCHANGES

 READING SOLUTIONGROUP

 Creating solution: SLN_1           

 OPENED mfsim.ims
 FILE TYPE:IMS   UNIT 1015   STATUS:OLD                 
 FORMAT:FORMATTED              ACCESS:SEQUENTIAL          
 ACTION:READ                

 END OF SIMULATION SOLUTIONGROUP

 IMS -- ITERATIVE MODEL SOLUTION PACKAGE, VERSION 6, 4/28/2017
         INPUT READ FROM UNIT 1015
 # File generated by Flopy version 3.3.5 on 06/01/2022 at 13:19:04.

 PROCESSING IMS OPTIONS
 END OF IMS OPTIONS

 PROCESSING IMS NONLINEAR
 END OF IMS NONLINEAR DATA
 ***UNDER-RELAXATION WILL NOT BE USED***
 
 ***IMS LINEAR SOLVER WILL BE USED***

 IMSLINEAR -- UNSTRUCTURED LINEAR SOLUTION PACKAGE, VERSION 8, 04/28/2017

 PROCESSING LINEAR DATA
 END OF LINEAR DATA
 
 OUTER ITERATION CONVERGENCE CRITERION    (DVCLOSE) =    0.100000E-04
 MAXIMUM NUMBER OF OUTER ITERATIONS        (MXITER) = 100
 SOLVER PRINTOUT INDEX                     (IPRIMS) = 2
 NONLINEAR ITERATION METHOD            (NONLINMETH) = 0
 LINEAR SOLUTION METHOD                   (LINMETH) = 1

       SOLUTION BY THE        CONJUGATE-GRADIENT       METHOD
 ------------------------------------------------------------------
 MAXIMUM OF 100 CALLS OF SOLUTION ROUTINE
 MAXIMUM OF 50 INTERNAL ITERATIONS PER CALL TO SOLUTION ROUTINE
 LINEAR ACCELERATION METHOD            = CG        
 MATRIX PRECONDITIONING TYPE           = INCOMPLETE LU       
 MATRIX SCALING APPROACH               = NO SCALING          
 MATRIX REORDERING APPROACH            = ORIGINAL ORDERING        
 NUMBER OF ORTHOGONALIZATIONS          = 0
 HEAD CHANGE CRITERION FOR CLOSURE     =    0.10000E-05
 RESIDUAL CHANGE CRITERION FOR CLOSURE =    0.10000E-04
 RESIDUAL CONVERGENCE OPTION           = 1
 RESIDUAL CONVERGENCE NORM             = INFINITY NORM S 
 RELAXATION FACTOR                     =    0.00000E+00



 
    Solving:  Stress period:     1    Time step:     1
 
1
                            STRESS PERIOD NO. 1, LENGTH =   8.000000    
                            -----------------------------------------------
                            NUMBER OF TIME STEPS = 1
                            MULTIPLIER FOR DELT =     1.000
                            INITIAL TIME STEP SIZE =   8.000000    

 SLN_1 OUTER ITERATION SUMMARY
 ----------------------------------------------------------------------------------------------------------
                                OUTER      INNER                    STEP   MAXIMUM CHANGE MODEL-(CELLID) OR
 OUTER ITERATION STEP       ITERATION  ITERATION  MAXIMUM CHANGE SUCCESS             MODEL-PACKAGE-(NUMBER)
 ----------------------------------------------------------------------------------------------------------
 Model                              1         50       27.311828                            1_GWF-(1,26519)
 Model                              2         50      -22.374446                            1_GWF-(1,26519)
 Model                              3         50       1.6777725                            1_GWF-(1,24191)
 Model                              4         50     -0.32682633                             1_GWF-(1,8836)
 Model                              5         50      0.10536456                            1_GWF-(1,23070)
 Model                              6         50 -3.57631324E-02                             1_GWF-(1,8260)
 Model                              7         50  1.12264203E-02                            1_GWF-(1,21474)
 Model                              8         50 -4.24048534E-03                            1_GWF-(1,24775)
 Model                              9         50  1.45284408E-03                            1_GWF-(1,21474)
 Model                             10         50 -5.19860620E-04                            1_GWF-(1,24775)
 Model                             11         50  1.83296827E-04                            1_GWF-(1,21480)
 Model                             12         50 -6.40866056E-05                            1_GWF-(1,24774)
 Model                             13         50  2.32716579E-05                            1_GWF-(1,21480)
 Model                             14         12 -5.87987663E-06                            1_GWF-(1,24742)
 Model                             15          1  9.84355387E-07       *                    1_GWF-(1,26543)
 ----------------------------------------------------------------------------------------------------------


 15 CALLS TO NUMERICAL SOLUTION IN TIME STEP 1 STRESS PERIOD 1
 663 TOTAL ITERATIONS

 SLN_1 INNER ITERATION SUMMARY
 --------------------------------------------------------------------------------------------------------------------------------------
      TOTAL      OUTER      INNER                                                            MAXIMUM                                   
  ITERATION  ITERATION  ITERATION  MAXIMUM CHANGE      MAXIMUM CHANGE MODEL-(CELLID)        RESIDUAL    MAXIMUM RESIDUAL MODEL-(CELLID)
 --------------------------------------------------------------------------------------------------------------------------------------
          1          1          1      -11.760832                    1_GWF-(1,12785)      0.58880269                    1_GWF-(1,15911)
          2          1          2       5.9149025                    1_GWF-(1,26601)      0.39573739                    1_GWF-(1,15921)
          3          1          3       6.0568629                    1_GWF-(1,26565)      0.35191602                    1_GWF-(1,15940)
          4          1          4       5.4976866                    1_GWF-(1,26510)      0.26880192                    1_GWF-(1,15975)
          5          1          5       4.0250466                    1_GWF-(1,26647)     -0.12411002                    1_GWF-(1,15912)
          6          1          6       4.0082693                    1_GWF-(1,26649) -8.10914506E-02                    1_GWF-(1,15918)
          7          1          7       3.3227495                    1_GWF-(1,26663) -9.78586221E-02                    1_GWF-(1,15948)
          8          1          8       4.3797943                    1_GWF-(1,26665) -9.71058198E-02                    1_GWF-(1,15942)
          9          1          9       4.6745573                    1_GWF-(1,26666) -6.10548077E-02                    1_GWF-(1,15940)
         10          1         10       6.4269590                    1_GWF-(1,26665) -6.11153874E-02                    1_GWF-(1,15948)
         11          1         11       4.2809619                    1_GWF-(1,26666)  6.11189850E-02                    1_GWF-(1,15940)
         12          1         12       3.3315262                    1_GWF-(1,26649)  6.17585921E-02                    1_GWF-(1,15942)
         13          1         13       2.9814368                    1_GWF-(1,26622)  4.33770557E-02                    1_GWF-(1,15940)
         14          1         14      -2.8411615                    1_GWF-(1,26622) -3.53392501E-02                    1_GWF-(1,15921)
         15          1         15      -2.3274861                    1_GWF-(1,26623)  3.63193711E-02                    1_GWF-(1,10652)
         16          1         16      -2.1117332                    1_GWF-(1,26622)  4.16345002E-02                    1_GWF-(1,10650)
         17          1         17      -1.9773320                    1_GWF-(1,26623)  3.11314724E-02                    1_GWF-(1,14799)
         18          1         18      -2.1102483                    1_GWF-(1,26589) -3.45931563E-02                    1_GWF-(1,15941)
         19          1         19      -3.6003784                    1_GWF-(1,26588)  4.24122721E-02                    1_GWF-(1,10966)
         20          1         20      -3.8274120                    1_GWF-(1,26543)  4.48662903E-02                    1_GWF-(1,10650)
         21          1         21      -3.4236351                    1_GWF-(1,26588) -2.93005340E-02                    1_GWF-(1,11194)
         22          1         22      -3.1562814                    1_GWF-(1,26486)  3.37279053E-02                    1_GWF-(1,10652)
         23          1         23      -3.3132670                    1_GWF-(1,26487)  3.40884480E-02                    1_GWF-(1,10650)
         24          1         24      -3.4208021                    1_GWF-(1,26486)  3.23720260E-02                    1_GWF-(1,14799)
         25          1         25      -2.8594116                    1_GWF-(1,26487)  2.54620793E-02                    1_GWF-(1,10955)
         26          1         26       2.5742142                    1_GWF-(1,20913)  3.04223409E-02                    1_GWF-(1,10651)
         27          1         27       2.5243410                    1_GWF-(1,20921)  3.11398963E-02                    1_GWF-(1,15853)
         28          1         28       1.7360064                    1_GWF-(1,26487)  2.23325324E-02                    1_GWF-(1,11180)
         29          1         29       1.6755849                    1_GWF-(1,26420)  2.28646432E-02                    1_GWF-(1,10652)
         30          1         30       1.7971750                    1_GWF-(1,26422)  2.65603609E-02                    1_GWF-(1,10650)
         31          1         31       1.7923132                    1_GWF-(1,26350) -2.11833024E-02                    1_GWF-(1,10966)
         32          1         32       1.6637001                    1_GWF-(1,26422) -2.52119181E-02                    1_GWF-(1,10963)
         33          1         33       1.4233729                    1_GWF-(1,26350) -1.70390392E-02                    1_GWF-(1,10958)
         34          1         34       1.3870196                    1_GWF-(1,26422) -1.68978195E-02                    1_GWF-(1,10965)
         35          1         35       1.0894199                    1_GWF-(1,26350) -2.32394930E-02                    1_GWF-(1,10963)
         36          1         36      0.80599180                    1_GWF-(1,26422) -1.90333851E-02                    1_GWF-(1,10958)
         37          1         37     -0.88393952                    1_GWF-(1,26422) -1.56607055E-02                    1_GWF-(1,10968)
         38          1         38     -0.93761425                    1_GWF-(1,26350) -1.52009714E-02                    1_GWF-(1,11180)
         39          1         39     -0.96398651                    1_GWF-(1,26422)  1.96261292E-02                    1_GWF-(1,15942)
         40          1         40     -0.89853661                    1_GWF-(1,26350) -2.11433471E-02                    1_GWF-(1,15941)
         41          1         41     -0.75354662                    1_GWF-(1,26649)  2.03283253E-02                    1_GWF-(1,15939)
         42          1         42     -0.88854088                    1_GWF-(1,26623)  1.96693027E-02                    1_GWF-(1,15940)
         43          1         43     -0.78680487                    1_GWF-(1,26586) -1.65880026E-02                    1_GWF-(1,15940)
         44          1         44     -0.63094687                    1_GWF-(1,26623) -1.99086356E-02                    1_GWF-(1,15941)
         45          1         45      0.48800597                    1_GWF-(1,26218)  2.23755441E-02                    1_GWF-(1,15941)
         46          1         46     -0.58068891                    1_GWF-(1,20926)  1.60738664E-02                    1_GWF-(1,15940)
         47          1         47     -0.61894050                    1_GWF-(1,20933) -2.21488436E-02                    1_GWF-(1,15940)
         48          1         48     -0.69621364                    1_GWF-(1,21272) -1.87277883E-02                    1_GWF-(1,15941)
         49          1         49     -0.69682690                    1_GWF-(1,21261)  2.05256868E-02                    1_GWF-(1,15941)
         50          1         50     -0.71727351                    1_GWF-(1,26218) -2.15477530E-02                    1_GWF-(1,15941)
         51          2          1      -22.775956                    1_GWF-(1,26519)     -0.16328099                    1_GWF-(1,26458)
         52          2          2      -8.8543048                    1_GWF-(1,26569)  4.61298162E-02                    1_GWF-(1,26458)
         53          2          3      -4.0692572                    1_GWF-(1,26637)  2.55653461E-02                    1_GWF-(1,26516)
         54          2          4      -4.5050873                    1_GWF-(1,26665) -2.05389966E-02                    1_GWF-(1,26458)
         55          2          5      -3.3225552                    1_GWF-(1,26649)  1.77290993E-02                    1_GWF-(1,26458)
         56          2          6      -2.6486008                    1_GWF-(1,26589)  1.07855216E-02                    1_GWF-(1,26516)
         57          2          7      -2.3543116                    1_GWF-(1,26543) -1.07292128E-02                    1_GWF-(1,15940)
         58          2          8      -2.0854828                    1_GWF-(1,26486)  1.22791079E-02                    1_GWF-(1,15940)
         59          2          9      -1.6112597                    1_GWF-(1,26487)  1.05891164E-02                     1_GWF-(1,9291)
         60          2         10      -1.4756570                    1_GWF-(1,26350)  1.05686362E-02                     1_GWF-(1,9290)
         61          2         11      -1.2228456                    1_GWF-(1,26422)  1.05246819E-02                     1_GWF-(1,9290)
         62          2         12     -0.98233212                    1_GWF-(1,26217)  1.04675309E-02                     1_GWF-(1,9290)
         63          2         13     -0.84059639                    1_GWF-(1,26218)  1.04013734E-02                     1_GWF-(1,9290)
         64          2         14     -0.60769699                    1_GWF-(1,26649)  1.03061838E-02                     1_GWF-(1,9290)
         65          2         15     -0.70665412                    1_GWF-(1,26622)  1.01405334E-02                     1_GWF-(1,9290)
         66          2         16     -0.81217114                    1_GWF-(1,25515)  9.93918892E-03                     1_GWF-(1,9290)
         67          2         17       1.1468292                    1_GWF-(1,26350) -9.87041569E-03                    1_GWF-(1,15940)
         68          2         18       1.0654414                    1_GWF-(1,26217)  9.70303777E-03                     1_GWF-(1,9290)
         69          2         19      0.90849944                    1_GWF-(1,26218)  9.66802696E-03                     1_GWF-(1,9290)
         70          2         20     -0.58373354                    1_GWF-(1,26588)  9.64533155E-03                     1_GWF-(1,9290)
         71          2         21       1.1078073                    1_GWF-(1,26588)  9.61470405E-03                     1_GWF-(1,9290)
         72          2         22       1.4897629                    1_GWF-(1,26543)  9.44510108E-03                     1_GWF-(1,9290)
         73          2         23      0.89240767                    1_GWF-(1,26542)  9.12761484E-03                     1_GWF-(1,9291)
         74          2         24     -0.89050657                    1_GWF-(1,26422)  8.76769616E-03                     1_GWF-(1,9290)
         75          2         25      -1.1926489                    1_GWF-(1,26486)  8.40619179E-03                     1_GWF-(1,9291)
         76          2         26      -1.3351669                    1_GWF-(1,26487)  8.11313560E-03                     1_GWF-(1,9290)
         77          2         27     -0.93227549                    1_GWF-(1,26420)  7.87698388E-03                     1_GWF-(1,9291)
         78          2         28     -0.49060447                    1_GWF-(1,26543)  7.71503531E-03                     1_GWF-(1,9291)
         79          2         29     -0.47108114                    1_GWF-(1,26327)  7.58126082E-03                     1_GWF-(1,9290)
         80          2         30      0.39001044                    1_GWF-(1,26420)  8.70650331E-03                    1_GWF-(1,15941)
         81          2         31     -0.39239595                    1_GWF-(1,26184)  1.35041101E-02                    1_GWF-(1,15940)
         82          2         32     -0.41050392                    1_GWF-(1,26672)  1.77481357E-02                    1_GWF-(1,15941)
         83          2         33     -0.45980681                    1_GWF-(1,26156)  2.31527640E-02                    1_GWF-(1,15940)
         84          2         34     -0.46011804                    1_GWF-(1,25790) -2.67302605E-02                    1_GWF-(1,15940)
         85          2         35      0.66271084                    1_GWF-(1,26422)  2.71486028E-02                    1_GWF-(1,15940)
         86          2         36      0.57586158                    1_GWF-(1,26350) -2.04014790E-02                    1_GWF-(1,15940)
         87          2         37     -0.56601992                    1_GWF-(1,26350) -1.07673612E-02                    1_GWF-(1,15941)
         88          2         38      0.62589606                    1_GWF-(1,26350) -7.07271334E-03                    1_GWF-(1,26625)
         89          2         39      0.59055106                    1_GWF-(1,26422) -1.18780183E-02                    1_GWF-(1,15940)
         90          2         40     -0.54459046                    1_GWF-(1,26422)  1.96651011E-02                    1_GWF-(1,15940)
         91          2         41      0.41186413                    1_GWF-(1,20977) -2.14617391E-02                    1_GWF-(1,15940)
         92          2         42      0.30268014                    1_GWF-(1,21288)  2.44194470E-02                    1_GWF-(1,15940)
         93          2         43      0.32256932                    1_GWF-(1,21283) -2.29820402E-02                    1_GWF-(1,15940)
         94          2         44      0.33963131                    1_GWF-(1,21271)  2.43980832E-02                    1_GWF-(1,15940)
         95          2         45      0.34195389                    1_GWF-(1,20578) -2.47939752E-02                    1_GWF-(1,15940)
         96          2         46      0.38181496                    1_GWF-(1,20582) -2.23355082E-02                    1_GWF-(1,15941)
         97          2         47      0.39633631                    1_GWF-(1,20570) -1.90760197E-02                    1_GWF-(1,15940)
         98          2         48     -0.29935542                    1_GWF-(1,26422) -1.43002491E-02                    1_GWF-(1,15941)
         99          2         49     -0.30310102                    1_GWF-(1,20996)  1.17139790E-02                    1_GWF-(1,10652)
        100          2         50     -0.34739031                    1_GWF-(1,20983)  9.41355161E-03                    1_GWF-(1,10651)
        101          3          1      0.21599306                    1_GWF-(1,26673) -5.33727276E-02                    1_GWF-(1,11430)
        102          3          2      0.26924658                    1_GWF-(1,26672)  9.70965406E-03                    1_GWF-(1,10651)
        103          3          3     -0.24520174                    1_GWF-(1,26672)  5.12987185E-02                    1_GWF-(1,11430)
        104          3          4      0.25143033                    1_GWF-(1,26350) -4.05216626E-02                    1_GWF-(1,11430)
        105          3          5     -0.31499066                    1_GWF-(1,20616)  1.23816256E-02                    1_GWF-(1,11430)
        106          3          6     -0.23630800                    1_GWF-(1,20609)  1.77518429E-02                    1_GWF-(1,11430)
        107          3          7     -0.19199225                    1_GWF-(1,26674) -2.78745180E-02                    1_GWF-(1,11430)
        108          3          8     -0.23855882                    1_GWF-(1,26663)  1.78107959E-02                    1_GWF-(1,11430)
        109          3          9      0.18132637                    1_GWF-(1,20700)  6.86693365E-03                    1_GWF-(1,10652)
        110          3         10      0.21208211                    1_GWF-(1,20699) -1.93780572E-02                    1_GWF-(1,11430)
        111          3         11      0.23618050                    1_GWF-(1,20596)  1.73603982E-02                    1_GWF-(1,11430)
        112          3         12     -0.25390146                    1_GWF-(1,26422)  5.44473882E-03                    1_GWF-(1,14801)
        113          3         13      0.21071460                    1_GWF-(1,26422) -8.04268522E-03                    1_GWF-(1,11430)
        114          3         14      0.23419775                    1_GWF-(1,26350)  1.31495841E-02                    1_GWF-(1,11430)
        115          3         15     -0.28835184                    1_GWF-(1,26350) -7.46125849E-03                    1_GWF-(1,11430)
        116          3         16     -0.27277612                    1_GWF-(1,26422) -4.95540995E-03                    1_GWF-(1,11430)
        117          3         17      0.23498940                    1_GWF-(1,20913)  1.19739535E-02                    1_GWF-(1,11430)
        118          3         18     -0.19599677                    1_GWF-(1,26672) -7.83185314E-03                    1_GWF-(1,11430)
        119          3         19      0.18231226                    1_GWF-(1,26672)  6.01626866E-03                    1_GWF-(1,14801)
        120          3         20     -0.19906387                    1_GWF-(1,20911)  6.68245291E-03                    1_GWF-(1,11430)
        121          3         21     -0.19139221                    1_GWF-(1,20919) -7.49445779E-03                    1_GWF-(1,11430)
        122          3         22     -0.19702935                    1_GWF-(1,20229)  5.55974515E-03                    1_GWF-(1,14800)
        123          3         23     -0.14068869                    1_GWF-(1,20571)  5.34779931E-03                    1_GWF-(1,14801)
        124          3         24      0.22685699                    1_GWF-(1,26486) -5.67179130E-03                    1_GWF-(1,11430)
        125          3         25      0.26178838                    1_GWF-(1,26487)  2.80583578E-03                    1_GWF-(1,10650)
        126          3         26      0.19451476                    1_GWF-(1,26486)  4.43293174E-03                    1_GWF-(1,11430)
        127          3         27      0.11900373                    1_GWF-(1,26422) -4.83874384E-03                    1_GWF-(1,11430)
        128          3         28     -0.18922221                    1_GWF-(1,26588)  6.05811017E-03                    1_GWF-(1,14801)
        129          3         29     -0.28123033                    1_GWF-(1,26543)  4.68678868E-03                    1_GWF-(1,14800)
        130          3         30     -0.23306504                    1_GWF-(1,26588) -3.15800346E-03                    1_GWF-(1,11430)
        131          3         31      0.17834324                    1_GWF-(1,26588)  4.67522110E-03                    1_GWF-(1,14801)
        132          3         32     -0.10290625                    1_GWF-(1,26588)  6.03964099E-03                    1_GWF-(1,14800)
        133          3         33     -0.11897671                    1_GWF-(1,26422)  5.81552018E-03                    1_GWF-(1,14801)
        134          3         34      0.14000573                    1_GWF-(1,26622) -4.92870659E-03                    1_GWF-(1,14801)
        135          3         35     -0.12763765                    1_GWF-(1,26622)  2.94354923E-03                    1_GWF-(1,11430)
        136          3         36      0.12624865                    1_GWF-(1,26622) -3.03597081E-03                    1_GWF-(1,14800)
        137          3         37      0.12271774                    1_GWF-(1,26649) -4.72436768E-03                    1_GWF-(1,14801)
        138          3         38      0.10029462                    1_GWF-(1,26622) -4.39652714E-03                    1_GWF-(1,14800)
        139          3         39 -8.85734676E-02                    1_GWF-(1,26666)  2.93494480E-03                    1_GWF-(1,14800)
        140          3         40     -0.14843862                    1_GWF-(1,26665)  1.62468120E-03                     1_GWF-(1,9290)
        141          3         41     -0.11216519                    1_GWF-(1,26666)  2.34061372E-03                    1_GWF-(1,14801)
        142          3         42     -0.10769207                    1_GWF-(1,26665) -4.79979725E-03                    1_GWF-(1,14801)
        143          3         43 -8.06683230E-02                    1_GWF-(1,26217) -5.83460713E-03                    1_GWF-(1,14800)
        144          3         44  8.92819350E-02                    1_GWF-(1,26588) -6.89529832E-03                    1_GWF-(1,14801)
        145          3         45  9.15543150E-02                    1_GWF-(1,26649) -7.89664943E-03                    1_GWF-(1,14800)
        146          3         46      0.11247112                    1_GWF-(1,26648) -1.02701730E-02                    1_GWF-(1,14801)
        147          3         47  8.29649226E-02                    1_GWF-(1,26443) -9.87523640E-03                    1_GWF-(1,14800)
        148          3         48  9.26158961E-02                    1_GWF-(1,26453) -1.00133522E-02                    1_GWF-(1,14801)
        149          3         49     -0.11513662                    1_GWF-(1,26648)  9.91685430E-03                    1_GWF-(1,14801)
        150          3         50     -0.12632427                    1_GWF-(1,26463) -1.12683272E-02                    1_GWF-(1,14801)
        151          4          1 -6.43048398E-02                    1_GWF-(1,26217) -1.23603733E-02                    1_GWF-(1,15226)
        152          4          2 -5.37351093E-02                    1_GWF-(1,26218) -8.83217426E-03                    1_GWF-(1,14801)
        153          4          3 -6.39327170E-02                    1_GWF-(1,26217) -1.01667365E-02                    1_GWF-(1,14800)
        154          4          4 -6.82547583E-02                    1_GWF-(1,26218) -1.12344390E-02                    1_GWF-(1,14801)
        155          4          5 -6.71345634E-02                    1_GWF-(1,26217) -1.10375721E-02                    1_GWF-(1,14800)
        156          4          6 -7.77062466E-02                    1_GWF-(1,26218) -1.06867184E-02                    1_GWF-(1,14801)
        157          4          7 -6.25448490E-02                    1_GWF-(1,26217) -9.01019075E-03                    1_GWF-(1,14800)
        158          4          8  4.39608702E-02                    1_GWF-(1,26217) -8.23036314E-03                    1_GWF-(1,14801)
        159          4          9 -4.53471648E-02                    1_GWF-(1,26666) -6.22717237E-03                    1_GWF-(1,14800)
        160          4         10 -5.26441814E-02                    1_GWF-(1,26665) -4.74534560E-03                    1_GWF-(1,14801)
        161          4         11  7.39418214E-02                    1_GWF-(1,26665) -1.74252882E-03                    1_GWF-(1,14800)
        162          4         12  6.21012047E-02                    1_GWF-(1,26666) -1.34751970E-03                    1_GWF-(1,14800)
        163          4         13  6.22359917E-02                    1_GWF-(1,26665) -3.74649593E-03                    1_GWF-(1,14801)
        164          4         14  4.40297661E-02                    1_GWF-(1,26622) -4.59948308E-03                    1_GWF-(1,14800)
        165          4         15  5.54725894E-02                    1_GWF-(1,26649) -3.96043377E-03                    1_GWF-(1,14801)
        166          4         16  6.54173686E-02                    1_GWF-(1,26622) -2.21956222E-03                    1_GWF-(1,15896)
        167          4         17 -8.20892457E-02                    1_GWF-(1,26622) -2.03752951E-03                    1_GWF-(1,14800)
        168          4         18 -6.90146339E-02                    1_GWF-(1,26623) -3.92465679E-03                    1_GWF-(1,14801)
        169          4         19  6.99241334E-02                    1_GWF-(1,20135)  4.88369309E-03                    1_GWF-(1,14801)
        170          4         20  7.18854822E-02                    1_GWF-(1,20156)  4.11580987E-03                    1_GWF-(1,14800)
        171          4         21 -6.50788063E-02                    1_GWF-(1,26543)  2.68825835E-03                    1_GWF-(1,14801)
        172          4         22 -8.68655561E-02                    1_GWF-(1,26588)  1.81482852E-03                    1_GWF-(1,15810)
        173          4         23  8.23713219E-02                    1_GWF-(1,26588)  2.96179934E-03                    1_GWF-(1,14800)
        174          4         24 -8.57343494E-02                    1_GWF-(1,20163) -4.29020900E-03                    1_GWF-(1,14800)
        175          4         25 -7.16064824E-02                    1_GWF-(1,20496) -4.05652519E-03                    1_GWF-(1,14801)
        176          4         26  5.80283358E-02                    1_GWF-(1,26486)  2.15659370E-03                    1_GWF-(1,14801)
        177          4         27  6.98658406E-02                    1_GWF-(1,26487)  1.15562137E-03                    1_GWF-(1,15853)
        178          4         28 -6.54339809E-02                    1_GWF-(1,26487)  3.05770172E-03                    1_GWF-(1,14800)
        179          4         29  5.45223993E-02                    1_GWF-(1,26487)  4.66285733E-03                    1_GWF-(1,14801)
        180          4         30  5.35796498E-02                    1_GWF-(1,20228)  5.27682482E-03                    1_GWF-(1,14800)
        181          4         31  5.28738088E-02                    1_GWF-(1,20917)  5.59699494E-03                    1_GWF-(1,14801)
        182          4         32  4.21626606E-02                    1_GWF-(1,20196)  5.59379665E-03                    1_GWF-(1,14800)
        183          4         33  4.94214708E-02                    1_GWF-(1,20208)  6.08425918E-03                    1_GWF-(1,14801)
        184          4         34  4.99739899E-02                    1_GWF-(1,20212)  6.34224424E-03                    1_GWF-(1,14800)
        185          4         35 -4.09376054E-02                    1_GWF-(1,26350)  6.70796468E-03                    1_GWF-(1,14801)
        186          4         36 -6.04597113E-02                    1_GWF-(1,26422)  5.83492335E-03                    1_GWF-(1,14800)
        187          4         37 -6.73101290E-02                    1_GWF-(1,26350)  4.57277063E-03                    1_GWF-(1,14801)
        188          4         38 -6.91634160E-02                    1_GWF-(1,26422)  2.47587414E-03                    1_GWF-(1,14800)
        189          4         39 -6.13209969E-02                    1_GWF-(1,20205)  1.51953503E-03                    1_GWF-(1,10650)
        190          4         40 -5.30371923E-02                    1_GWF-(1,20213)  2.56790101E-03                    1_GWF-(1,14801)
        191          4         41 -5.06915687E-02                    1_GWF-(1,20571)  4.18970855E-03                    1_GWF-(1,14800)
        192          4         42 -4.41406085E-02                    1_GWF-(1,20580)  5.14318581E-03                    1_GWF-(1,14801)
        193          4         43  3.26959534E-02                    1_GWF-(1,26486)  5.19570932E-03                    1_GWF-(1,14800)
        194          4         44  3.12579261E-02                    1_GWF-(1,26420)  5.98470033E-03                    1_GWF-(1,14801)
        195          4         45  3.64334798E-02                    1_GWF-(1,26421)  5.73282691E-03                    1_GWF-(1,14800)
        196          4         46  3.14727361E-02                    1_GWF-(1,20230)  5.49840171E-03                    1_GWF-(1,14801)
        197          4         47  2.78516903E-02                    1_GWF-(1,20616)  4.82116297E-03                    1_GWF-(1,14800)
        198          4         48  2.62979561E-02                    1_GWF-(1,20704)  4.24128644E-03                    1_GWF-(1,14801)
        199          4         49  2.86195584E-02                    1_GWF-(1,20697)  3.68704172E-03                    1_GWF-(1,14800)
        200          4         50  2.59747406E-02                    1_GWF-(1,20720)  3.47474228E-03                    1_GWF-(1,14801)
        201          5          1 -1.59343517E-02                    1_GWF-(1,26217)  3.27530109E-03                    1_GWF-(1,14800)
        202          5          2 -2.43254792E-02                    1_GWF-(1,26218)  3.62688465E-03                    1_GWF-(1,14801)
        203          5          3 -2.23602800E-02                    1_GWF-(1,26217)  3.96496941E-03                    1_GWF-(1,14800)
        204          5          4 -1.99034719E-02                    1_GWF-(1,26486)  4.44808958E-03                    1_GWF-(1,14801)
        205          5          5 -2.38558631E-02                    1_GWF-(1,20230)  4.60239939E-03                    1_GWF-(1,14800)
        206          5          6 -2.37551203E-02                    1_GWF-(1,26218)  5.04253677E-03                    1_GWF-(1,14801)
        207          5          7 -1.97408629E-02                    1_GWF-(1,26544)  4.44593995E-03                    1_GWF-(1,14800)
        208          5          8 -1.71179598E-02                    1_GWF-(1,26486)  4.10403724E-03                    1_GWF-(1,14801)
        209          5          9  1.95738812E-02                    1_GWF-(1,20579)  3.25050869E-03                    1_GWF-(1,14800)
        210          5         10  2.45338493E-02                    1_GWF-(1,20560)  2.39538948E-03                    1_GWF-(1,14801)
        211          5         11  2.31559937E-02                    1_GWF-(1,26486)  1.31926954E-03                    1_GWF-(1,10650)
        212          5         12  2.90073624E-02                    1_GWF-(1,26350)  1.02425460E-03                    1_GWF-(1,10481)
        213          5         13  3.92312105E-02                    1_GWF-(1,26422)  1.87959784E-03                    1_GWF-(1,14801)
        214          5         14  3.92479744E-02                    1_GWF-(1,26350)  2.58808025E-03                    1_GWF-(1,14800)
        215          5         15  3.47179229E-02                    1_GWF-(1,26422)  3.02992539E-03                    1_GWF-(1,14801)
        216          5         16  2.46487911E-02                    1_GWF-(1,26350)  2.83743174E-03                    1_GWF-(1,14800)
        217          5         17 -1.70610177E-02                    1_GWF-(1,20111)  2.69702487E-03                    1_GWF-(1,14801)
        218          5         18 -1.33278189E-02                    1_GWF-(1,20186)  2.28273328E-03                    1_GWF-(1,14800)
        219          5         19 -1.48589569E-02                    1_GWF-(1,20196)  2.02420127E-03                    1_GWF-(1,14801)
        220          5         20 -1.63875598E-02                    1_GWF-(1,20916)  1.80127605E-03                    1_GWF-(1,14800)
        221          5         21 -2.04081775E-02                    1_GWF-(1,20226)  1.50223522E-03                    1_GWF-(1,14801)
        222          5         22 -1.55420350E-02                    1_GWF-(1,26487)  1.34833553E-03                    1_GWF-(1,10650)
        223          5         23 -1.83403605E-02                    1_GWF-(1,26420)  6.28171646E-04                    1_GWF-(1,10629)
        224          5         24 -2.26509022E-02                    1_GWF-(1,26487) -2.74775109E-04                    1_GWF-(1,15853)
        225          5         25 -2.04972293E-02                    1_GWF-(1,26486)  8.50834766E-04                    1_GWF-(1,10650)
        226          5         26 -1.96797821E-02                    1_GWF-(1,26487) -1.11229199E-03                    1_GWF-(1,14800)
        227          5         27  1.86595547E-02                    1_GWF-(1,20163)  1.18299835E-03                    1_GWF-(1,10650)
        228          5         28  1.50080047E-02                    1_GWF-(1,20122)  7.47501808E-04                    1_GWF-(1,14801)
        229          5         29 -1.56640259E-02                    1_GWF-(1,26543) -2.88129920E-04                    1_GWF-(1,15570)
        230          5         30  1.74375587E-02                    1_GWF-(1,26543)  6.97106440E-04                    1_GWF-(1,14800)
        231          5         31  1.63077275E-02                    1_GWF-(1,26588) -1.06288817E-03                    1_GWF-(1,10650)
        232          5         32  1.11768377E-02                    1_GWF-(1,26543)  9.20543941E-04                    1_GWF-(1,14800)
        233          5         33  1.08564348E-02                    1_GWF-(1,26666) -7.26056688E-04                    1_GWF-(1,14800)
        234          5         34  1.31433660E-02                    1_GWF-(1,26665) -4.41832573E-04                    1_GWF-(1,14801)
        235          5         35 -1.51866161E-02                    1_GWF-(1,26665)  3.32785609E-04                    1_GWF-(1,10650)
        236          5         36 -1.05762466E-02                    1_GWF-(1,26666) -7.24432134E-04                    1_GWF-(1,10650)
        237          5         37  8.28934882E-03                    1_GWF-(1,26623) -8.34913861E-04                    1_GWF-(1,14801)
        238          5         38  7.78729383E-03                    1_GWF-(1,26622) -7.57138379E-04                    1_GWF-(1,14800)
        239          5         39 -8.38410385E-03                    1_GWF-(1,26622) -4.72817262E-04                    1_GWF-(1,14801)
        240          5         40 -1.01321502E-02                    1_GWF-(1,26665) -3.27365545E-04                    1_GWF-(1,10629)
        241          5         41  1.11356246E-02                    1_GWF-(1,26665) -7.25816642E-04                    1_GWF-(1,14800)
        242          5         42  7.93493484E-03                    1_GWF-(1,26666) -1.04850149E-03                    1_GWF-(1,14801)
        243          5         43 -7.64810828E-03                    1_GWF-(1,26217) -1.19611003E-03                    1_GWF-(1,14800)
        244          5         44 -8.29154351E-03                    1_GWF-(1,26218) -1.41830009E-03                    1_GWF-(1,14801)
        245          5         45  1.04516211E-02                    1_GWF-(1,20604) -1.48193100E-03                    1_GWF-(1,14800)
        246          5         46  1.34484719E-02                    1_GWF-(1,20917) -1.56718732E-03                    1_GWF-(1,14801)
        247          5         47  1.07389042E-02                    1_GWF-(1,20225) -1.48810430E-03                    1_GWF-(1,14800)
        248          5         48  1.08862189E-02                    1_GWF-(1,26217) -1.42550153E-03                    1_GWF-(1,14801)
        249          5         49  1.18408946E-02                    1_GWF-(1,26218) -1.10777175E-03                    1_GWF-(1,14800)
        250          5         50 -2.04816911E-02                    1_GWF-(1,20233)  2.34475117E-03                    1_GWF-(1,15910)
        251          6          1 -9.72234016E-03                    1_GWF-(1,26217) -1.00241777E-03                    1_GWF-(1,14800)
        252          6          2 -1.03736093E-02                    1_GWF-(1,26218) -1.22734384E-03                    1_GWF-(1,14801)
        253          6          3 -1.03155258E-02                    1_GWF-(1,26217)  1.14110010E-03                    1_GWF-(1,14801)
        254          6          4 -9.05900578E-03                    1_GWF-(1,26218) -1.20070536E-03                    1_GWF-(1,14801)
        255          6          5 -8.31325793E-03                    1_GWF-(1,20234) -1.11181010E-03                    1_GWF-(1,14800)
        256          6          6 -8.11199401E-03                    1_GWF-(1,20909) -1.04701022E-03                    1_GWF-(1,14801)
        257          6          7  5.35305582E-03                    1_GWF-(1,26218) -8.49560310E-04                    1_GWF-(1,14800)
        258          6          8  5.14701432E-03                    1_GWF-(1,26217) -6.93183134E-04                    1_GWF-(1,14801)
        259          6          9 -4.01402072E-03                    1_GWF-(1,26666) -4.88170977E-04                    1_GWF-(1,14800)
        260          6         10 -5.79000879E-03                    1_GWF-(1,26665) -2.80211862E-04                    1_GWF-(1,10629)
        261          6         11  5.94505046E-03                    1_GWF-(1,26665) -2.33611281E-04                    1_GWF-(1,10650)
        262          6         12 -6.15102600E-03                    1_GWF-(1,26649) -4.12808261E-04                    1_GWF-(1,14800)
        263          6         13 -4.73765408E-03                    1_GWF-(1,26622) -4.71888470E-04                    1_GWF-(1,14801)
        264          6         14  4.49892726E-03                    1_GWF-(1,26622) -4.55979238E-04                    1_GWF-(1,10650)
        265          6         15  5.34685017E-03                    1_GWF-(1,26623)  3.73849892E-04                    1_GWF-(1,10650)
        266          6         16  8.71749687E-03                    1_GWF-(1,26665) -2.13335585E-04                    1_GWF-(1,10650)
        267          6         17  6.88211198E-03                    1_GWF-(1,26666) -3.14865606E-04                    1_GWF-(1,14800)
        268          6         18 -5.53078023E-03                    1_GWF-(1,26666)  4.36229824E-04                    1_GWF-(1,14800)
        269          6         19  6.44572270E-03                    1_GWF-(1,20131) -6.35892895E-04                    1_GWF-(1,10650)
        270          6         20 -6.81124207E-03                    1_GWF-(1,26588)  5.67490437E-04                    1_GWF-(1,10650)
        271          6         21 -7.10155250E-03                    1_GWF-(1,26543) -3.04723576E-04                    1_GWF-(1,10650)
        272          6         22  7.55120667E-03                    1_GWF-(1,26543)  2.05014735E-04                    1_GWF-(1,14801)
        273          6         23 -5.87073833E-03                    1_GWF-(1,20155)  5.42193837E-04                    1_GWF-(1,10650)
        274          6         24 -7.18192923E-03                    1_GWF-(1,20152) -6.84880754E-04                    1_GWF-(1,10650)
        275          6         25  6.94474744E-03                    1_GWF-(1,26487)  6.36048142E-04                    1_GWF-(1,10650)
        276          6         26  7.36584569E-03                    1_GWF-(1,26486) -2.33241304E-04                    1_GWF-(1,10650)
        277          6         27  8.46363032E-03                    1_GWF-(1,26487) -1.80435639E-04                    1_GWF-(1,10650)
        278          6         28  7.20963493E-03                    1_GWF-(1,26588)  6.33622641E-04                    1_GWF-(1,10650)
        279          6         29  5.27300032E-03                    1_GWF-(1,26487) -6.16473017E-04                    1_GWF-(1,10650)
        280          6         30  6.78469578E-03                    1_GWF-(1,20216)  8.29099638E-04                    1_GWF-(1,10650)
        281          6         31  6.67360236E-03                    1_GWF-(1,20918) -5.40281485E-04                    1_GWF-(1,10650)
        282          6         32  6.02177192E-03                    1_GWF-(1,21261)  6.79018106E-04                    1_GWF-(1,10650)
        283          6         33  5.28739130E-03                    1_GWF-(1,20223)  5.58488750E-04                    1_GWF-(1,14801)
        284          6         34  5.60381934E-03                    1_GWF-(1,20216)  5.78872876E-04                    1_GWF-(1,14800)
        285          6         35 -4.77546919E-03                    1_GWF-(1,26350)  6.13901729E-04                    1_GWF-(1,14801)
        286          6         36 -7.27507400E-03                    1_GWF-(1,26422)  5.76784541E-04                    1_GWF-(1,14800)
        287          6         37 -8.22546303E-03                    1_GWF-(1,26350)  5.11741178E-04                    1_GWF-(1,14801)
        288          6         38 -8.37803483E-03                    1_GWF-(1,26422)  3.11073911E-04                    1_GWF-(1,14800)
        289          6         39 -6.56511585E-03                    1_GWF-(1,26350)  4.35649178E-04                    1_GWF-(1,10650)
        290          6         40 -5.57070349E-03                    1_GWF-(1,20606)  2.71166490E-04                    1_GWF-(1,10629)
        291          6         41 -4.98966227E-03                    1_GWF-(1,20571)  3.66578902E-04                    1_GWF-(1,14800)
        292          6         42  3.39028480E-03                    1_GWF-(1,26350)  4.72221396E-04                    1_GWF-(1,14801)
        293          6         43  3.88859148E-03                    1_GWF-(1,26421)  5.56019477E-04                    1_GWF-(1,14800)
        294          6         44  3.55138187E-03                    1_GWF-(1,26420)  6.59029142E-04                    1_GWF-(1,14801)
        295          6         45  4.30183687E-03                    1_GWF-(1,26218)  6.34435050E-04                    1_GWF-(1,14800)
        296          6         46  3.95259367E-03                    1_GWF-(1,20606)  6.49333468E-04                    1_GWF-(1,14801)
        297          6         47  3.02382968E-03                    1_GWF-(1,26486)  6.04470876E-04                    1_GWF-(1,14800)
        298          6         48  2.77655947E-03                    1_GWF-(1,20209)  5.82843638E-04                    1_GWF-(1,14801)
        299          6         49  2.23209611E-03                    1_GWF-(1,26218)  4.74535815E-04                    1_GWF-(1,14800)
        300          6         50  1.58026374E-03                    1_GWF-(1,20159)  4.14681334E-04                    1_GWF-(1,14801)
        301          7          1 -7.37392773E-03                    1_GWF-(1,11439)  4.09217402E-04                    1_GWF-(1,14800)
        302          7          2 -2.78778610E-03                    1_GWF-(1,11440)  5.32117891E-04                    1_GWF-(1,14801)
        303          7          3  4.98810647E-03                    1_GWF-(1,11439)  5.45137321E-04                    1_GWF-(1,14800)
        304          7          4 -4.41636264E-03                    1_GWF-(1,11439)  5.70559211E-04                    1_GWF-(1,14801)
        305          7          5 -5.16213195E-03                    1_GWF-(1,11440)  5.15363070E-04                    1_GWF-(1,14800)
        306          7          6  5.12735833E-03                    1_GWF-(1,11440)  4.99140401E-04                    1_GWF-(1,14801)
        307          7          7 -2.32767228E-03                    1_GWF-(1,26544)  4.18984268E-04                    1_GWF-(1,14800)
        308          7          8 -2.33324658E-03                    1_GWF-(1,11440)  3.58898033E-04                    1_GWF-(1,14801)
        309          7          9  3.35102459E-03                    1_GWF-(1,11440)  2.55176067E-04                    1_GWF-(1,14800)
        310          7         10  2.90954949E-03                    1_GWF-(1,20571)  1.56358114E-04                    1_GWF-(1,10629)
        311          7         11  4.06167304E-03                    1_GWF-(1,26486)  1.86310273E-04                    1_GWF-(1,10650)
        312          7         12  3.43297940E-03                    1_GWF-(1,26544)  2.17801732E-04                    1_GWF-(1,14800)
        313          7         13  3.49466527E-03                    1_GWF-(1,26543)  1.88185640E-04                    1_GWF-(1,14801)
        314          7         14  3.59581631E-03                    1_GWF-(1,26422)  2.63352175E-04                    1_GWF-(1,10650)
        315          7         15  3.65484530E-03                    1_GWF-(1,26350)  1.66292849E-04                    1_GWF-(1,10481)
        316          7         16  3.70004023E-03                    1_GWF-(1,26422)  1.71761352E-04                    1_GWF-(1,10650)
        317          7         17  2.91709121E-03                    1_GWF-(1,26350)  1.97719435E-04                    1_GWF-(1,14800)
        318          7         18  2.15254761E-03                    1_GWF-(1,26422)  2.26014252E-04                    1_GWF-(1,14801)
        319          7         19 -1.99140293E-03                    1_GWF-(1,21267)  2.17927542E-04                    1_GWF-(1,14800)
        320          7         20 -2.24215070E-03                    1_GWF-(1,21259)  2.15744510E-04                    1_GWF-(1,14801)
        321          7         21 -2.20565930E-03                    1_GWF-(1,20230)  2.67513102E-04                    1_GWF-(1,10650)
        322          7         22 -1.97562704E-03                    1_GWF-(1,20221) -2.43555948E-04                    1_GWF-(1,10650)
        323          7         23 -1.65239197E-03                    1_GWF-(1,11439)  2.52874606E-04                    1_GWF-(1,10650)
        324          7         24  1.93743885E-03                    1_GWF-(1,20228) -1.74644937E-04                    1_GWF-(1,10650)
        325          7         25  2.27060920E-03                    1_GWF-(1,20219)  6.87897303E-05                    1_GWF-(1,10650)
        326          7         26 -2.10850273E-03                    1_GWF-(1,26622)  1.15538748E-04                    1_GWF-(1,10650)
        327          7         27  1.98004044E-03                    1_GWF-(1,20508) -2.09579534E-04                    1_GWF-(1,10650)
        328          7         28  2.01655420E-03                    1_GWF-(1,20164)  2.37791942E-04                    1_GWF-(1,10650)
        329          7         29  1.55482037E-03                    1_GWF-(1,20110) -2.13931778E-04                    1_GWF-(1,10650)
        330          7         30 -1.46330227E-03                    1_GWF-(1,20166)  1.51119337E-04                    1_GWF-(1,10650)
        331          7         31 -1.57294538E-03                    1_GWF-(1,20211) -7.99258508E-05                    1_GWF-(1,10650)
        332          7         32  1.84768343E-03                    1_GWF-(1,26588) -3.42481326E-05                    1_GWF-(1,10650)
        333          7         33  1.50385550E-03                    1_GWF-(1,26543)  8.21916562E-05                    1_GWF-(1,10650)
        334          7         34  1.53965997E-03                    1_GWF-(1,26588) -1.23858559E-04                    1_GWF-(1,10650)
        335          7         35  1.26608090E-03                    1_GWF-(1,26543) -9.84306573E-05                    1_GWF-(1,14801)
        336          7         36  1.01486420E-03                    1_GWF-(1,26588) -9.47194908E-05                    1_GWF-(1,14800)
        337          7         37  1.15854565E-03                    1_GWF-(1,26665) -7.31869467E-05                    1_GWF-(1,14801)
        338          7         38  1.36382311E-03                    1_GWF-(1,26666) -4.45235595E-05                    1_GWF-(1,10481)
        339          7         39  1.45302266E-03                    1_GWF-(1,26665) -8.20598235E-05                    1_GWF-(1,10650)
        340          7         40 -1.30375254E-03                    1_GWF-(1,26665) -7.98063366E-05                    1_GWF-(1,14801)
        341          7         41  8.45559999E-04                    1_GWF-(1,26665) -9.46406657E-05                    1_GWF-(1,14800)
        342          7         42 -6.80620059E-04                    1_GWF-(1,26218) -1.13865832E-04                    1_GWF-(1,14801)
        343          7         43  8.84246952E-04                    1_GWF-(1,21270) -1.28620017E-04                    1_GWF-(1,14800)
        344          7         44  1.17820061E-03                    1_GWF-(1,20584) -1.52534697E-04                    1_GWF-(1,14801)
        345          7         45  1.34063970E-03                    1_GWF-(1,20915) -1.56397447E-04                    1_GWF-(1,14800)
        346          7         46  1.30415611E-03                    1_GWF-(1,20234) -1.69369951E-04                    1_GWF-(1,14801)
        347          7         47  1.25442473E-03                    1_GWF-(1,26218) -1.58001745E-04                    1_GWF-(1,14800)
        348          7         48  1.38412501E-03                    1_GWF-(1,26217) -1.68188260E-04                    1_GWF-(1,14801)
        349          7         49 -1.50654923E-03                    1_GWF-(1,20231) -1.38871706E-04                    1_GWF-(1,14800)
        350          7         50 -1.62663715E-03                    1_GWF-(1,20230)  1.92334969E-04                    1_GWF-(1,15910)
        351          8          1 -1.16981111E-03                    1_GWF-(1,26217) -1.24659195E-04                    1_GWF-(1,14800)
        352          8          2 -1.22968575E-03                    1_GWF-(1,26218) -1.38221310E-04                    1_GWF-(1,14801)
        353          8          3 -1.17703046E-03                    1_GWF-(1,26217) -1.29951098E-04                    1_GWF-(1,14800)
        354          8          4 -1.03098969E-03                    1_GWF-(1,26218) -1.36075996E-04                    1_GWF-(1,14801)
        355          8          5 -8.09919211E-04                    1_GWF-(1,26217) -1.20314183E-04                    1_GWF-(1,14800)
        356          8          6 -8.26825697E-04                    1_GWF-(1,20909) -1.13201070E-04                    1_GWF-(1,14801)
        357          8          7  5.67032113E-04                    1_GWF-(1,26218) -9.22527844E-05                    1_GWF-(1,14800)
        358          8          8  5.69753741E-04                    1_GWF-(1,26217) -7.44527281E-05                    1_GWF-(1,14801)
        359          8          9  4.75205682E-04                    1_GWF-(1,26218)  6.25458117E-05                    1_GWF-(1,14801)
        360          8         10 -4.88598166E-04                    1_GWF-(1,26665) -5.14023278E-05                    1_GWF-(1,14801)
        361          8         11  6.33086372E-04                    1_GWF-(1,26665) -4.50191397E-05                    1_GWF-(1,10650)
        362          8         12 -7.96106573E-04                    1_GWF-(1,26665) -2.07488807E-05                    1_GWF-(1,10481)
        363          8         13 -7.04233290E-04                    1_GWF-(1,26666) -3.93025135E-05                    1_GWF-(1,14801)
        364          8         14  5.74182810E-04                    1_GWF-(1,26588) -5.14162810E-05                    1_GWF-(1,14800)
        365          8         15 -6.76999168E-04                    1_GWF-(1,26588)  5.68005932E-05                    1_GWF-(1,10650)
        366          8         16 -8.14783335E-04                    1_GWF-(1,26543) -5.75072301E-05                    1_GWF-(1,10650)
        367          8         17 -8.14394505E-04                    1_GWF-(1,26588) -1.63366016E-05                    1_GWF-(1,10481)
        368          8         18  6.39554095E-04                    1_GWF-(1,26665)  3.89127495E-05                    1_GWF-(1,14800)
        369          8         19  7.46879014E-04                    1_GWF-(1,20120) -6.94455080E-05                    1_GWF-(1,10650)
        370          8         20  8.30288187E-04                    1_GWF-(1,20211)  7.03617112E-05                    1_GWF-(1,10650)
        371          8         21  8.50362689E-04                    1_GWF-(1,20166) -5.89905256E-05                    1_GWF-(1,10650)
        372          8         22 -7.50545534E-04                    1_GWF-(1,26420)  1.50480929E-05                    1_GWF-(1,15810)
        373          8         23  7.43862389E-04                    1_GWF-(1,26588)  5.35165402E-05                    1_GWF-(1,10650)
        374          8         24 -8.69433952E-04                    1_GWF-(1,20152) -8.55554341E-05                    1_GWF-(1,10650)
        375          8         25 -6.84743986E-04                    1_GWF-(1,20509)  9.79384815E-05                    1_GWF-(1,10650)
        376          8         26 -9.40221476E-04                    1_GWF-(1,20219) -7.92041956E-05                    1_GWF-(1,10650)
        377          8         27 -7.68927615E-04                    1_GWF-(1,20221)  8.05307477E-05                    1_GWF-(1,10650)
        378          8         28 -4.14925560E-04                    1_GWF-(1,20913) -6.62875563E-05                    1_GWF-(1,10650)
        379          8         29  6.11526779E-04                    1_GWF-(1,20221)  6.19056338E-05                    1_GWF-(1,10650)
        380          8         30  6.67199561E-04                    1_GWF-(1,26487)  3.80049386E-05                    1_GWF-(1,14801)
        381          8         31 -7.36151320E-04                    1_GWF-(1,26622)  2.48020531E-05                    1_GWF-(1,10481)
        382          8         32  6.35049488E-04                    1_GWF-(1,21261)  6.14178427E-05                    1_GWF-(1,10650)
        383          8         33  6.08791778E-04                    1_GWF-(1,20222)  5.78989289E-05                    1_GWF-(1,14801)
        384          8         34  6.79183085E-04                    1_GWF-(1,20215)  6.17721644E-05                    1_GWF-(1,14800)
        385          8         35 -5.53858946E-04                    1_GWF-(1,26544)  6.24225397E-05                    1_GWF-(1,14801)
        386          8         36 -7.88320206E-04                    1_GWF-(1,26422)  5.79706024E-05                    1_GWF-(1,14800)
        387          8         37 -9.01838608E-04                    1_GWF-(1,26350)  5.23446637E-05                    1_GWF-(1,14801)
        388          8         38 -9.36969376E-04                    1_GWF-(1,26422) -3.65547932E-05                    1_GWF-(1,10650)
        389          8         39 -7.56520255E-04                    1_GWF-(1,26350)  5.29772841E-05                    1_GWF-(1,10650)
        390          8         40 -7.32554492E-04                    1_GWF-(1,20609)  2.85017204E-05                    1_GWF-(1,10629)
        391          8         41 -6.09287117E-04                    1_GWF-(1,20606)  4.20021524E-05                    1_GWF-(1,14800)
        392          8         42 -4.24716491E-04                    1_GWF-(1,20703)  5.35370101E-05                    1_GWF-(1,14801)
        393          8         43  4.54833143E-04                    1_GWF-(1,26421)  6.10688789E-05                    1_GWF-(1,14800)
        394          8         44  4.10642522E-04                    1_GWF-(1,26350)  7.09807509E-05                    1_GWF-(1,14801)
        395          8         45  4.75676983E-04                    1_GWF-(1,26218)  6.66814189E-05                    1_GWF-(1,14800)
        396          8         46  4.01597983E-04                    1_GWF-(1,20571)  7.03264915E-05                    1_GWF-(1,14801)
        397          8         47  3.59740513E-04                    1_GWF-(1,26486)  6.64589441E-05                    1_GWF-(1,14800)
        398          8         48 -3.98724529E-04                    1_GWF-(1,11439)  6.47231938E-05                    1_GWF-(1,14801)
        399          8         49  2.50487862E-04                    1_GWF-(1,26218)  5.05914320E-05                    1_GWF-(1,14800)
        400          8         50  4.23198572E-04                    1_GWF-(1,11439)  4.69368907E-05                    1_GWF-(1,14801)
        401          9          1 -4.10229392E-04                    1_GWF-(1,11439)  4.88731566E-05                    1_GWF-(1,14800)
        402          9          2 -2.90724542E-04                    1_GWF-(1,26218)  5.96844474E-05                    1_GWF-(1,14801)
        403          9          3  3.09788221E-04                    1_GWF-(1,11439)  6.05452327E-05                    1_GWF-(1,14800)
        404          9          4 -3.36258104E-04                    1_GWF-(1,26486)  6.21561405E-05                    1_GWF-(1,14801)
        405          9          5 -3.63446972E-04                    1_GWF-(1,26544)  5.62478643E-05                    1_GWF-(1,14800)
        406          9          6 -3.81293075E-04                    1_GWF-(1,26486)  5.47543414E-05                    1_GWF-(1,14801)
        407          9          7 -3.27289727E-04                    1_GWF-(1,26544)  4.10854132E-05                    1_GWF-(1,14800)
        408          9          8 -3.75740244E-04                    1_GWF-(1,26486)  2.17929564E-05                    1_GWF-(1,14801)
        409          9          9 -3.04979971E-04                    1_GWF-(1,26487)  1.90587813E-05                    1_GWF-(1,10650)
        410          9         10  3.07289048E-04                    1_GWF-(1,26588)  3.66439653E-05                    1_GWF-(1,14800)
        411          9         11  3.85723145E-04                    1_GWF-(1,20609)  3.95364017E-05                    1_GWF-(1,14801)
        412          9         12  3.60512248E-04                    1_GWF-(1,21273)  3.07567299E-05                    1_GWF-(1,14800)
        413          9         13  3.86040435E-04                    1_GWF-(1,26350)  2.10272336E-05                    1_GWF-(1,14801)
        414          9         14  4.68709114E-04                    1_GWF-(1,26422)  2.89967368E-05                    1_GWF-(1,10650)
        415          9         15  4.38944337E-04                    1_GWF-(1,26350)  1.63807410E-05                    1_GWF-(1,10481)
        416          9         16  4.27369904E-04                    1_GWF-(1,26422)  1.86678349E-05                    1_GWF-(1,14801)
        417          9         17  3.29380524E-04                    1_GWF-(1,26350)  2.30856881E-05                    1_GWF-(1,14800)
        418          9         18 -2.53904964E-04                    1_GWF-(1,20221)  2.57406005E-05                    1_GWF-(1,14801)
        419          9         19 -2.45259377E-04                    1_GWF-(1,20584)  2.43628377E-05                    1_GWF-(1,14800)
        420          9         20 -2.66777322E-04                    1_GWF-(1,21259)  2.17991535E-05                    1_GWF-(1,14801)
        421          9         21 -2.33077332E-04                    1_GWF-(1,26487)  1.87617330E-05                    1_GWF-(1,10650)
        422          9         22 -2.84745640E-04                    1_GWF-(1,26486)  7.09640039E-06                    1_GWF-(1,14800)
        423          9         23 -2.53528789E-04                    1_GWF-(1,26487)  1.76469985E-05                    1_GWF-(1,14801)
        424          9         24 -2.54179263E-04                    1_GWF-(1,26486)  2.03013537E-05                    1_GWF-(1,10650)
        425          9         25  3.05321664E-04                    1_GWF-(1,20219) -2.13774299E-05                    1_GWF-(1,10650)
        426          9         26  1.87186103E-04                    1_GWF-(1,20197)  2.42336536E-05                    1_GWF-(1,10650)
        427          9         27  2.25329354E-04                    1_GWF-(1,20508) -1.89758550E-05                    1_GWF-(1,10650)
        428          9         28 -2.15384767E-04                    1_GWF-(1,26588)  7.90549473E-06                    1_GWF-(1,10650)
        429          9         29  2.18511356E-04                    1_GWF-(1,26420)  7.24316509E-06                    1_GWF-(1,10650)
        430          9         30 -1.74456919E-04                    1_GWF-(1,26588) -1.79105914E-05                    1_GWF-(1,10650)
        431          9         31 -2.04941022E-04                    1_GWF-(1,20168)  1.77892197E-05                    1_GWF-(1,10650)
        432          9         32 -1.65220445E-04                    1_GWF-(1,20119) -1.84205022E-05                    1_GWF-(1,10650)
        433          9         33 -1.30846575E-04                    1_GWF-(1,20108)  1.28414845E-05                    1_GWF-(1,10650)
        434          9         34  1.16885931E-04                    1_GWF-(1,20214) -1.32015702E-05                    1_GWF-(1,14800)
        435          9         35  1.40013559E-04                    1_GWF-(1,20207) -1.38046905E-05                    1_GWF-(1,14801)
        436          9         36  9.23984933E-05                    1_GWF-(1,20220) -1.34730310E-05                    1_GWF-(1,14800)
        437          9         37  7.08871566E-05                    1_GWF-(1,20951) -1.37933289E-05                    1_GWF-(1,14801)
        438          9         38 -9.05534382E-05                    1_GWF-(1,20216) -1.32375337E-05                    1_GWF-(1,14800)
        439          9         39 -8.77611340E-05                    1_GWF-(1,20217) -1.34542200E-05                    1_GWF-(1,14801)
        440          9         40 -9.33579348E-05                    1_GWF-(1,26420) -1.27069226E-05                    1_GWF-(1,14800)
        441          9         41 -8.33348129E-05                    1_GWF-(1,26663) -1.34427527E-05                    1_GWF-(1,10650)
        442          9         42 -1.24627372E-04                    1_GWF-(1,26665) -7.28645801E-06                    1_GWF-(1,10481)
        443          9         43 -1.41011572E-04                    1_GWF-(1,26666) -5.96522444E-06                    1_GWF-(1,15226)
        444          9         44 -1.59970962E-04                    1_GWF-(1,26665) -9.17641631E-06                    1_GWF-(1,14801)
        445          9         45  1.47207714E-04                    1_GWF-(1,20232) -1.37655317E-05                    1_GWF-(1,14800)
        446          9         46  1.30089463E-04                    1_GWF-(1,20234) -1.68576015E-05                    1_GWF-(1,14801)
        447          9         47  1.27946738E-04                    1_GWF-(1,26218) -1.62698426E-05                    1_GWF-(1,14800)
        448          9         48  1.49133887E-04                    1_GWF-(1,26217) -1.75433643E-05                    1_GWF-(1,14801)
        449          9         49 -1.56288505E-04                    1_GWF-(1,20231) -1.53083959E-05                    1_GWF-(1,14800)
        450          9         50  1.38104695E-04                    1_GWF-(1,26217)  1.96975956E-05                    1_GWF-(1,15910)
        451         10          1 -1.30633831E-04                    1_GWF-(1,26217) -1.31709927E-05                    1_GWF-(1,14800)
        452         10          2 -1.27205906E-04                    1_GWF-(1,26218) -1.20843367E-05                    1_GWF-(1,14801)
        453         10          3  1.19797854E-04                    1_GWF-(1,26622)  7.42975930E-06                    1_GWF-(1,15910)
        454         10          4 -1.22666588E-04                    1_GWF-(1,26622) -3.95489876E-06                    1_GWF-(1,14800)
        455         10          5 -8.97833844E-05                    1_GWF-(1,26588) -1.06959610E-05                    1_GWF-(1,14801)
        456         10          6 -9.75169217E-05                    1_GWF-(1,20232) -1.21632200E-05                    1_GWF-(1,14800)
        457         10          7 -7.53271072E-05                    1_GWF-(1,26218) -1.24762771E-05                    1_GWF-(1,14801)
        458         10          8  8.71855038E-05                    1_GWF-(1,26218)  9.94130638E-06                    1_GWF-(1,14801)
        459         10          9  7.07257197E-05                    1_GWF-(1,26217) -7.61989000E-06                    1_GWF-(1,14801)
        460         10         10 -7.30558144E-05                    1_GWF-(1,26666) -3.89088532E-06                    1_GWF-(1,14800)
        461         10         11 -8.71216146E-05                    1_GWF-(1,26665)  2.78634603E-06                    1_GWF-(1,10650)
        462         10         12  7.39593039E-05                    1_GWF-(1,26665) -5.17099789E-06                    1_GWF-(1,14801)
        463         10         13 -5.89474866E-05                    1_GWF-(1,26665) -6.71088960E-06                    1_GWF-(1,14800)
        464         10         14  5.77558460E-05                    1_GWF-(1,26622) -7.73500859E-06                    1_GWF-(1,14801)
        465         10         15  6.58502832E-05                    1_GWF-(1,26649) -6.79634308E-06                    1_GWF-(1,14800)
        466         10         16 -7.51146087E-05                    1_GWF-(1,26486) -3.57391191E-06                    1_GWF-(1,14801)
        467         10         17 -1.06396572E-04                    1_GWF-(1,26487) -3.35808280E-06                    1_GWF-(1,10650)
        468         10         18 -9.67603317E-05                    1_GWF-(1,26420)  6.20222618E-06                    1_GWF-(1,14801)
        469         10         19  7.62757249E-05                    1_GWF-(1,20185)  8.00323606E-06                    1_GWF-(1,14800)
        470         10         20  8.85851233E-05                    1_GWF-(1,20212)  8.43585340E-06                    1_GWF-(1,14801)
        471         10         21  1.10769054E-04                    1_GWF-(1,20167)  8.20951965E-06                    1_GWF-(1,14800)
        472         10         22 -7.28783157E-05                    1_GWF-(1,20113)  8.31125062E-06                    1_GWF-(1,14801)
        473         10         23 -8.06596976E-05                    1_GWF-(1,20155)  9.67057977E-06                    1_GWF-(1,10650)
        474         10         24 -1.05432867E-04                    1_GWF-(1,20152) -9.46947423E-06                    1_GWF-(1,10650)
        475         10         25 -8.30843307E-05                    1_GWF-(1,20510)  9.17765302E-06                    1_GWF-(1,10650)
        476         10         26 -1.07564869E-04                    1_GWF-(1,20219)  6.46722849E-06                    1_GWF-(1,14801)
        477         10         27  9.12814515E-05                    1_GWF-(1,26543)  5.09535787E-06                    1_GWF-(1,14800)
        478         10         28  1.30781318E-04                    1_GWF-(1,26588)  1.79512416E-06                    1_GWF-(1,14801)
        479         10         29  9.35997908E-05                    1_GWF-(1,26589)  4.33350769E-06                    1_GWF-(1,10629)
        480         10         30  7.58412000E-05                    1_GWF-(1,26588)  7.78390962E-06                    1_GWF-(1,10650)
        481         10         31  8.88405341E-05                    1_GWF-(1,20918)  6.99251103E-06                    1_GWF-(1,14801)
        482         10         32  8.34101990E-05                    1_GWF-(1,21261)  6.93986111E-06                    1_GWF-(1,14800)
        483         10         33  7.70362342E-05                    1_GWF-(1,20222)  7.48555668E-06                    1_GWF-(1,14801)
        484         10         34  8.17166550E-05                    1_GWF-(1,20212)  7.37018932E-06                    1_GWF-(1,14800)
        485         10         35 -6.32747418E-05                    1_GWF-(1,26350)  7.33244126E-06                    1_GWF-(1,14801)
        486         10         36 -9.29192508E-05                    1_GWF-(1,26422)  6.75701865E-06                    1_GWF-(1,14800)
        487         10         37 -1.03902278E-04                    1_GWF-(1,26350)  5.98560577E-06                    1_GWF-(1,14801)
        488         10         38 -1.06703855E-04                    1_GWF-(1,26422)  3.20567012E-06                    1_GWF-(1,10481)
        489         10         39 -8.53807466E-05                    1_GWF-(1,20588)  3.84760647E-06                    1_GWF-(1,10650)
        490         10         40 -8.02798871E-05                    1_GWF-(1,20609)  4.16044743E-06                    1_GWF-(1,14801)
        491         10         41 -6.76432040E-05                    1_GWF-(1,20606)  3.99025459E-06                    1_GWF-(1,14800)
        492         10         42  7.27455885E-05                    1_GWF-(1,26486)  4.27313651E-06                    1_GWF-(1,10650)
        493         10         43  6.12167369E-05                    1_GWF-(1,26350)  2.81746237E-06                    1_GWF-(1,10629)
        494         10         44  7.36095825E-05                    1_GWF-(1,26422)  4.19615072E-06                    1_GWF-(1,14800)
        495         10         45  7.19039895E-05                    1_GWF-(1,26350)  5.75270564E-06                    1_GWF-(1,14801)
        496         10         46  6.55856049E-05                    1_GWF-(1,26486)  6.10490116E-06                    1_GWF-(1,14800)
        497         10         47  4.76700074E-05                    1_GWF-(1,26544)  6.57728203E-06                    1_GWF-(1,14801)
        498         10         48  4.00005196E-05                    1_GWF-(1,26486)  6.26458816E-06                    1_GWF-(1,14800)
        499         10         49 -3.76033177E-05                    1_GWF-(1,11439)  6.20236931E-06                    1_GWF-(1,14801)
        500         10         50  3.61257053E-05                    1_GWF-(1,11439)  4.99385843E-06                    1_GWF-(1,14800)
        501         11          1 -2.98733911E-05                    1_GWF-(1,26218)  9.50264081E-06                    1_GWF-(1,14801)
        502         11          2  3.57243855E-05                    1_GWF-(1,26486)  5.91598438E-06                    1_GWF-(1,14800)
        503         11          3 -5.63861800E-05                    1_GWF-(1,26486)  2.14390290E-06                    1_GWF-(1,14801)
        504         11          4 -7.13906989E-05                    1_GWF-(1,26487)  4.04645646E-06                    1_GWF-(1,14801)
        505         11          5 -6.15531315E-05                    1_GWF-(1,26486)  5.25642761E-06                    1_GWF-(1,14800)
        506         11          6 -4.31976769E-05                    1_GWF-(1,26487)  5.33858728E-06                    1_GWF-(1,14801)
        507         11          7 -3.77586087E-05                    1_GWF-(1,26420)  5.05461692E-06                    1_GWF-(1,14800)
        508         11          8 -3.43724992E-05                    1_GWF-(1,26421)  5.26663832E-06                    1_GWF-(1,14801)
        509         11          9  3.16974570E-05                    1_GWF-(1,20702)  4.39232142E-06                    1_GWF-(1,14800)
        510         11         10  4.06957278E-05                    1_GWF-(1,20604)  3.07157905E-06                    1_GWF-(1,14801)
        511         11         11  5.06054294E-05                    1_GWF-(1,21291)  3.18345875E-06                    1_GWF-(1,10650)
        512         11         12  4.32672476E-05                    1_GWF-(1,21268) -2.05291052E-06                    1_GWF-(1,10650)
        513         11         13  4.57677854E-05                    1_GWF-(1,26588)  3.03946806E-06                    1_GWF-(1,14801)
        514         11         14  3.83349186E-05                    1_GWF-(1,26543)  3.03194876E-06                    1_GWF-(1,14800)
        515         11         15  3.41935162E-05                    1_GWF-(1,26588)  2.00581540E-06                    1_GWF-(1,14801)
        516         11         16  4.42012089E-05                    1_GWF-(1,26486)  2.21449051E-06                    1_GWF-(1,10650)
        517         11         17  3.78315555E-05                    1_GWF-(1,26544)  1.69309572E-06                    1_GWF-(1,14800)
        518         11         18  3.30806107E-05                    1_GWF-(1,26486)  2.44478864E-06                    1_GWF-(1,14801)
        519         11         19 -2.91464186E-05                    1_GWF-(1,20584)  2.07178844E-06                    1_GWF-(1,14800)
        520         11         20  3.25170303E-05                    1_GWF-(1,26622)  1.53452429E-06                    1_GWF-(1,10629)
        521         11         21 -2.90527860E-05                    1_GWF-(1,26665)  1.90539486E-06                    1_GWF-(1,10650)
        522         11         22 -3.48828661E-05                    1_GWF-(1,26422)  1.63530319E-06                    1_GWF-(1,14800)
        523         11         23 -3.17262131E-05                    1_GWF-(1,26350)  2.39506253E-06                    1_GWF-(1,14801)
        524         11         24  2.76298364E-05                    1_GWF-(1,20231)  2.52891694E-06                    1_GWF-(1,14800)
        525         11         25  3.57072889E-05                    1_GWF-(1,20219) -2.49382003E-06                    1_GWF-(1,14800)
        526         11         26  2.18502237E-05                    1_GWF-(1,20497) -2.74138072E-06                    1_GWF-(1,14801)
        527         11         27  2.77237916E-05                    1_GWF-(1,20152) -2.70715580E-06                    1_GWF-(1,10650)
        528         11         28  2.51406001E-05                    1_GWF-(1,20164)  2.83607519E-06                    1_GWF-(1,10650)
        529         11         29  2.00017850E-05                    1_GWF-(1,20109) -2.59433254E-06                    1_GWF-(1,10650)
        530         11         30 -2.37485134E-05                    1_GWF-(1,20166)  1.78103062E-06                    1_GWF-(1,14800)
        531         11         31  2.83775658E-05                    1_GWF-(1,26588)  1.01567952E-06                    1_GWF-(1,14801)
        532         11         32  2.59357398E-05                    1_GWF-(1,26543) -8.36171071E-07                    1_GWF-(1,10650)
        533         11         33  2.16139832E-05                    1_GWF-(1,26588) -1.12326662E-06                    1_GWF-(1,10629)
        534         11         34  1.49340344E-05                    1_GWF-(1,26487) -1.58415732E-06                    1_GWF-(1,10650)
        535         11         35  1.61324360E-05                    1_GWF-(1,20207) -1.81403925E-06                    1_GWF-(1,14801)
        536         11         36  1.07540392E-05                    1_GWF-(1,20974) -1.79737552E-06                    1_GWF-(1,14800)
        537         11         37 -8.70763959E-06                    1_GWF-(1,11428) -1.69952804E-06                    1_GWF-(1,14801)
        538         11         38 -1.01512294E-05                    1_GWF-(1,20215) -1.59119500E-06                    1_GWF-(1,14800)
        539         11         39 -1.05254291E-05                    1_GWF-(1,20214) -1.54365644E-06                    1_GWF-(1,14801)
        540         11         40 -1.79110664E-05                    1_GWF-(1,26420) -1.14905072E-06                    1_GWF-(1,14800)
        541         11         41 -2.51491853E-05                    1_GWF-(1,26487) -1.02519580E-06                    1_GWF-(1,10650)
        542         11         42 -2.38455726E-05                    1_GWF-(1,26486) -8.27899303E-07                    1_GWF-(1,14801)
        543         11         43  1.62629889E-05                    1_GWF-(1,26486) -1.48936173E-06                    1_GWF-(1,14800)
        544         11         44  1.37077505E-05                    1_GWF-(1,20584) -1.85266559E-06                    1_GWF-(1,14801)
        545         11         45  1.62361252E-05                    1_GWF-(1,20232) -1.88874766E-06                    1_GWF-(1,14800)
        546         11         46  1.52959358E-05                    1_GWF-(1,20234) -1.96542667E-06                    1_GWF-(1,14801)
        547         11         47  1.13264973E-05                    1_GWF-(1,26622) -1.53900546E-06                    1_GWF-(1,14800)
        548         11         48  1.60076062E-05                    1_GWF-(1,26623) -1.22793666E-06                    1_GWF-(1,10650)
        549         11         49 -2.11933417E-05                    1_GWF-(1,26623) -9.70038535E-07                    1_GWF-(1,15910)
        550         11         50 -2.38130264E-05                    1_GWF-(1,26622) -1.75307709E-06                    1_GWF-(1,14800)
        551         12          1  2.31852794E-05                    1_GWF-(1,26622) -1.82335664E-06                    1_GWF-(1,14801)
        552         12          2  2.03178272E-05                    1_GWF-(1,26649) -5.53470559E-07                    1_GWF-(1,15910)
        553         12          3 -1.26631317E-05                    1_GWF-(1,26623) -1.23044144E-06                    1_GWF-(1,14800)
        554         12          4 -1.03358082E-05                    1_GWF-(1,26622) -1.91512944E-06                    1_GWF-(1,14801)
        555         12          5 -1.04904236E-05                    1_GWF-(1,20234) -1.69932260E-06                    1_GWF-(1,14800)
        556         12          6 -1.12447916E-05                    1_GWF-(1,20226) -1.75098911E-06                    1_GWF-(1,14801)
        557         12          7 -9.08391426E-06                    1_GWF-(1,26544) -1.31318593E-06                    1_GWF-(1,14800)
        558         12          8 -9.98819250E-06                    1_GWF-(1,26486) -6.50480889E-07                    1_GWF-(1,14801)
        559         12          9  1.54760426E-05                    1_GWF-(1,26486) -7.87957616E-07                    1_GWF-(1,10650)
        560         12         10  1.81057830E-05                    1_GWF-(1,26487)  6.36759111E-07                    1_GWF-(1,14801)
        561         12         11  1.30481889E-05                    1_GWF-(1,26420) -7.99016421E-07                    1_GWF-(1,14801)
        562         12         12  6.48937579E-06                    1_GWF-(1,20161) -9.19187953E-07                    1_GWF-(1,14800)
        563         12         13  5.63453151E-06                    1_GWF-(1,20221) -1.12231620E-06                    1_GWF-(1,14801)
        564         12         14 -4.48321065E-06                    1_GWF-(1,20975) -1.19442693E-06                    1_GWF-(1,14800)
        565         12         15 -7.03618465E-06                    1_GWF-(1,20974) -1.12114140E-06                    1_GWF-(1,14801)
        566         12         16 -1.00244648E-05                    1_GWF-(1,20207) -1.06393647E-06                    1_GWF-(1,10650)
        567         12         17 -8.16876672E-06                    1_GWF-(1,26487)  7.09499243E-07                    1_GWF-(1,10650)
        568         12         18 -1.11134237E-05                    1_GWF-(1,26588) -4.47423599E-07                    1_GWF-(1,10650)
        569         12         19 -1.29824355E-05                    1_GWF-(1,26543)  5.78778595E-07                    1_GWF-(1,14801)
        570         12         20 -1.42747078E-05                    1_GWF-(1,26588)  1.00980794E-06                    1_GWF-(1,10650)
        571         12         21  1.27175457E-05                    1_GWF-(1,20166) -1.37302191E-06                    1_GWF-(1,10650)
        572         12         22 -9.62901275E-06                    1_GWF-(1,20109)  1.56798073E-06                    1_GWF-(1,10650)
        573         12         23 -1.18271267E-05                    1_GWF-(1,20164) -1.39570047E-06                    1_GWF-(1,10650)
        574         12         24 -1.20398252E-05                    1_GWF-(1,20152)  1.29193992E-06                    1_GWF-(1,10650)
        575         12         25 -8.47280338E-06                    1_GWF-(1,20497) -1.07911112E-06                    1_GWF-(1,14800)
        576         12         26 -1.24756222E-05                    1_GWF-(1,20219)  9.77831850E-07                    1_GWF-(1,14800)
        577         12         27  1.08191239E-05                    1_GWF-(1,26623)  7.38637860E-07                    1_GWF-(1,14801)
        578         12         28  1.11359897E-05                    1_GWF-(1,26622) -4.48229153E-07                    1_GWF-(1,10650)
        579         12         29  1.19217326E-05                    1_GWF-(1,26623)  8.29568260E-07                    1_GWF-(1,10650)
        580         12         30  9.49521008E-06                    1_GWF-(1,26486)  8.24732867E-07                    1_GWF-(1,14801)
        581         12         31  9.05157739E-06                    1_GWF-(1,20918)  6.32874463E-07                    1_GWF-(1,14800)
        582         12         32  8.61602773E-06                    1_GWF-(1,21261)  7.50840047E-07                    1_GWF-(1,10650)
        583         12         33 -8.88544468E-06                    1_GWF-(1,26543)  6.51802210E-07                    1_GWF-(1,10629)
        584         12         34 -9.97718566E-06                    1_GWF-(1,26665)  6.10337475E-07                    1_GWF-(1,10650)
        585         12         35 -8.65577287E-06                    1_GWF-(1,26666)  8.01657374E-07                    1_GWF-(1,14801)
        586         12         36 -9.47469101E-06                    1_GWF-(1,26674)  8.67860005E-07                    1_GWF-(1,14800)
        587         12         37 -9.31163345E-06                    1_GWF-(1,26350)  8.26492825E-07                    1_GWF-(1,14801)
        588         12         38 -1.06325514E-05                    1_GWF-(1,21264) -5.94217730E-07                    1_GWF-(1,10650)
        589         12         39 -1.06198370E-05                    1_GWF-(1,20569)  6.90865649E-07                    1_GWF-(1,10650)
        590         12         40 -1.03355245E-05                    1_GWF-(1,20609)  5.20887062E-07                    1_GWF-(1,14801)
        591         12         41  8.40224410E-06                    1_GWF-(1,26486)  6.21504058E-07                    1_GWF-(1,14800)
        592         12         42  8.04245470E-06                    1_GWF-(1,26622)  5.17643797E-07                    1_GWF-(1,10650)
        593         12         43  8.63420584E-06                    1_GWF-(1,26420)  4.03976181E-07                    1_GWF-(1,10629)
        594         12         44  9.23189607E-06                    1_GWF-(1,26422)  5.51022893E-07                    1_GWF-(1,14800)
        595         12         45  9.51612520E-06                    1_GWF-(1,26350)  7.38795096E-07                    1_GWF-(1,14801)
        596         12         46  8.14789712E-06                    1_GWF-(1,26422)  6.90194746E-07                    1_GWF-(1,14800)
        597         12         47  5.88900536E-06                    1_GWF-(1,26420)  7.30905840E-07                    1_GWF-(1,14801)
        598         12         48 -4.65459301E-06                    1_GWF-(1,11439)  8.07748794E-07                    1_GWF-(1,14800)
        599         12         49 -3.41408892E-06                    1_GWF-(1,11428)  9.56150948E-07                    1_GWF-(1,14801)
        600         12         50 -2.81783010E-06                    1_GWF-(1,26420)  5.81850685E-07                    1_GWF-(1,14800)
        601         13          1 -2.76658296E-06                    1_GWF-(1,26421)  1.08341954E-06                    1_GWF-(1,14801)
        602         13          2 -3.43651229E-06                    1_GWF-(1,26350)  7.08088577E-07                    1_GWF-(1,14800)
        603         13          3 -4.67884830E-06                    1_GWF-(1,26487)  4.63759660E-07                    1_GWF-(1,14801)
        604         13          4 -7.43362949E-06                    1_GWF-(1,26420)  3.25142979E-07                    1_GWF-(1,10650)
        605         13          5 -7.64793120E-06                    1_GWF-(1,26487)  4.50118887E-07                    1_GWF-(1,14800)
        606         13          6 -6.64858530E-06                    1_GWF-(1,26486)  6.48990207E-07                    1_GWF-(1,14801)
        607         13          7 -5.60829821E-06                    1_GWF-(1,26487)  5.74028283E-07                    1_GWF-(1,14800)
        608         13          8 -5.62021408E-06                    1_GWF-(1,26486)  5.00114625E-07                    1_GWF-(1,14801)
        609         13          9 -4.47395153E-06                    1_GWF-(1,26544)  2.98829796E-07                    1_GWF-(1,14800)
        610         13         10  5.49451877E-06                    1_GWF-(1,26588)  2.52491727E-07                    1_GWF-(1,10481)
        611         13         11  5.99801966E-06                    1_GWF-(1,26543)  5.15178357E-07                    1_GWF-(1,14801)
        612         13         12  6.89042107E-06                    1_GWF-(1,26588)  5.42622622E-07                    1_GWF-(1,14800)
        613         13         13  5.70651239E-06                    1_GWF-(1,26543)  4.35618662E-07                    1_GWF-(1,14801)
        614         13         14  5.92125537E-06                    1_GWF-(1,26422)  4.67771930E-07                    1_GWF-(1,10650)
        615         13         15  5.70876710E-06                    1_GWF-(1,26350) -3.62936702E-07                    1_GWF-(1,10650)
        616         13         16  5.41107713E-06                    1_GWF-(1,26422)  3.78365659E-07                    1_GWF-(1,10650)
        617         13         17  3.81993793E-06                    1_GWF-(1,26350)  2.49820026E-07                    1_GWF-(1,14800)
        618         13         18 -3.90065079E-06                    1_GWF-(1,20222)  3.45072111E-07                    1_GWF-(1,14801)
        619         13         19 -3.46196318E-06                    1_GWF-(1,20583)  3.07489559E-07                    1_GWF-(1,14800)
        620         13         20 -3.36310161E-06                    1_GWF-(1,26487)  1.90757572E-07                    1_GWF-(1,10629)
        621         13         21 -4.09145895E-06                    1_GWF-(1,26420)  2.35291912E-07                    1_GWF-(1,10650)
        622         13         22 -3.64817118E-06                    1_GWF-(1,26422)  2.63268688E-07                    1_GWF-(1,14800)
        623         13         23 -3.11881283E-06                    1_GWF-(1,26649)  3.38826687E-07                    1_GWF-(1,14801)
        624         13         24  3.07882974E-06                    1_GWF-(1,20231)  3.15844767E-07                    1_GWF-(1,14800)
        625         13         25  3.78383599E-06                    1_GWF-(1,20221) -2.66458651E-07                    1_GWF-(1,10650)
        626         13         26 -3.13490018E-06                    1_GWF-(1,26665)  2.02013405E-07                    1_GWF-(1,10650)
        627         13         27 -3.36540620E-06                    1_GWF-(1,26666)  8.13328551E-08                    1_GWF-(1,14800)
        628         13         28 -3.23281829E-06                    1_GWF-(1,26665)  2.10681928E-07                    1_GWF-(1,14801)
        629         13         29  2.31160376E-06                    1_GWF-(1,20109)  2.60702296E-07                    1_GWF-(1,14800)
        630         13         30 -2.45522924E-06                    1_GWF-(1,20166) -3.72815111E-07                    1_GWF-(1,10650)
        631         13         31 -3.11577628E-06                    1_GWF-(1,20168)  3.67158245E-07                    1_GWF-(1,10650)
        632         13         32 -2.34108629E-06                    1_GWF-(1,20120) -3.72123338E-07                    1_GWF-(1,10650)
        633         13         33 -1.83940447E-06                    1_GWF-(1,20019)  2.71467264E-07                    1_GWF-(1,10650)
        634         13         34  1.69634958E-06                    1_GWF-(1,20215) -2.72889289E-07                    1_GWF-(1,10650)
        635         13         35  1.84442073E-06                    1_GWF-(1,20227) -2.18891413E-07                    1_GWF-(1,14801)
        636         13         36  1.49225752E-06                    1_GWF-(1,20980) -1.61860783E-07                    1_GWF-(1,14800)
        637         13         37 -1.77855319E-06                    1_GWF-(1,26649) -6.73994574E-08                    1_GWF-(1,10650)
        638         13         38  1.98081207E-06                    1_GWF-(1,26487)  1.36757005E-07                    1_GWF-(1,10650)
        639         13         39 -1.26667826E-06                    1_GWF-(1,26487) -1.99254630E-07                    1_GWF-(1,14800)
        640         13         40 -1.31464073E-06                    1_GWF-(1,26486) -1.98665579E-07                    1_GWF-(1,14801)
        641         13         41 -1.25868991E-06                    1_GWF-(1,26588)  1.65270213E-07                    1_GWF-(1,14801)
        642         13         42 -1.40633032E-06                    1_GWF-(1,26543) -1.57399305E-07                    1_GWF-(1,14801)
        643         13         43 -2.26560261E-06                    1_GWF-(1,26588) -1.10490952E-07                    1_GWF-(1,10481)
        644         13         44  2.66192368E-06                    1_GWF-(1,26588) -8.28021788E-08                    1_GWF-(1,10650)
        645         13         45  2.36264480E-06                    1_GWF-(1,26543) -1.70740359E-07                    1_GWF-(1,14801)
        646         13         46  2.08224607E-06                    1_GWF-(1,26588) -2.29444774E-07                    1_GWF-(1,14800)
        647         13         47  1.43431534E-06                    1_GWF-(1,26487) -2.26949902E-07                    1_GWF-(1,14801)
        648         13         48  1.33180157E-06                    1_GWF-(1,26420) -2.00721699E-07                    1_GWF-(1,14800)
        649         13         49 -1.74200328E-06                    1_GWF-(1,26649) -2.66040982E-07                    1_GWF-(1,10650)
        650         13         50 -2.09813414E-06                    1_GWF-(1,26622)  1.18924691E-07                    1_GWF-(1,10650)
        651         14          1 -2.66558053E-06                    1_GWF-(1,26649) -1.40053505E-07                    1_GWF-(1,10650)
        652         14          2  2.25328433E-06                    1_GWF-(1,26649) -5.17083024E-08                    1_GWF-(1,15912)
        653         14          3 -1.14876142E-06                    1_GWF-(1,26420)  1.29454903E-07                    1_GWF-(1,10650)
        654         14          4 -1.01340197E-06                    1_GWF-(1,26487) -1.96140442E-07                    1_GWF-(1,10650)
        655         14          5 -1.25843071E-06                    1_GWF-(1,20234)  1.86324559E-07                    1_GWF-(1,10650)
        656         14          6  1.00325629E-06                    1_GWF-(1,26623) -1.88352402E-07                    1_GWF-(1,10650)
        657         14          7  1.35215215E-06                    1_GWF-(1,26665)  9.86074747E-08                    1_GWF-(1,10650)
        658         14          8  1.42633272E-06                    1_GWF-(1,26588) -3.35439497E-08                    1_GWF-(1,10629)
        659         14          9 -1.46520846E-06                    1_GWF-(1,26588) -1.34285747E-07                    1_GWF-(1,10650)
        660         14         10  1.48570642E-06                    1_GWF-(1,26588)  1.27210563E-07                    1_GWF-(1,10650)
        661         14         11  1.08039041E-06                    1_GWF-(1,26543) -1.32343011E-07                    1_GWF-(1,10650)
        662         14         12  9.41504463E-07                    1_GWF-(1,26588) -9.07578445E-08                    1_GWF-(1,14800)
        663         15          1  9.84355387E-07                    1_GWF-(1,26543) -9.21551362E-08                    1_GWF-(1,14801)
 --------------------------------------------------------------------------------------------------------------------------------------



 MEMORY MANAGER TOTAL STORAGE BY DATA TYPE, IN MEGABYTES
 -------------------------------
                    ALLOCATED   
 DATA TYPE           MEMORY     
 -------------------------------
 Character        4.66090000E-02
 Logical          4.40000000E-05
 Integer          5.2037920     
 Real             11.901376     
 -------------------------------
 Total            17.151821     
 -------------------------------


 
 Run end date and time (yyyy/mm/dd hh:mm:ss): 2022/06/01 17:09:09
 Elapsed run time:  0.650 Seconds
 Normal termination of simulation.
