                                   MODFLOW 6
                U.S. GEOLOGICAL SURVEY MODULAR HYDROLOGIC MODEL
                          GROUNDWATER FLOW MODEL (GWF)
                            VERSION 6.2.2 07/30/2021

   MODFLOW 6 compiled Jul 31 2021 14:22:53 with IFORT compiler (ver. 19.10.3)

This software has been approved for release by the U.S. Geological 
Survey (USGS). Although the software has been subjected to rigorous 
review, the USGS reserves the right to update the software as needed 
pursuant to further analysis and review. No warranty, expressed or 
implied, is made by the USGS or the U.S. Government as to the 
functionality of the software and related material nor shall the 
fact of release constitute any such warranty. Furthermore, the 
software is released on condition that neither the USGS nor the U.S. 
Government shall be held liable for any damages resulting from its 
authorized or unauthorized use. Also refer to the USGS Water 
Resources Software User Rights Notice for complete use, copyright, 
and distribution information.


System command used to initiate simulation:
mf6

MODFLOW was compiled using uniform precision.

Real Variables
  KIND: 8
  TINY (smallest non-zero value):    2.225074-308
  HUGE (largest value):    1.797693+308
  PRECISION: 15
  BIT SIZE: 64

Integer Variables
  KIND: 4
  HUGE (largest value): 2147483647
  BIT SIZE: 32

Long Integer Variables
  KIND: 8
  HUGE (largest value): 9223372036854775807
  BIT SIZE: 64

Logical Variables
  KIND: 4
  BIT SIZE: 32
 

 OPENED ./ml.disv
 FILE TYPE:DISV6                  UNIT 1005   STATUS:OLD                 
 FORMAT:FORMATTED              ACCESS:SEQUENTIAL          
 ACTION:READ                


 OPENED ./ml.ic
 FILE TYPE:IC6                    UNIT 1006   STATUS:OLD                 
 FORMAT:FORMATTED              ACCESS:SEQUENTIAL          
 ACTION:READ                


 OPENED ./ml.npf
 FILE TYPE:NPF6                   UNIT 1007   STATUS:OLD                 
 FORMAT:FORMATTED              ACCESS:SEQUENTIAL          
 ACTION:READ                


 OPENED ./ml.ghb
 FILE TYPE:GHB6                   UNIT 1008   STATUS:OLD                 
 FORMAT:FORMATTED              ACCESS:SEQUENTIAL          
 ACTION:READ                


 OPENED ./ml.rcha
 FILE TYPE:RCH6                   UNIT 1009   STATUS:OLD                 
 FORMAT:FORMATTED              ACCESS:SEQUENTIAL          
 ACTION:READ                


 OPENED ./ml.obs
 FILE TYPE:OBS6                   UNIT 1010   STATUS:OLD                 
 FORMAT:FORMATTED              ACCESS:SEQUENTIAL          
 ACTION:READ                


 OPENED ./ml.oc
 FILE TYPE:OC6                    UNIT 1011   STATUS:OLD                 
 FORMAT:FORMATTED              ACCESS:SEQUENTIAL          
 ACTION:READ                


 OPENED ml.wel
 FILE TYPE:WEL6                   UNIT 1012   STATUS:OLD                 
 FORMAT:FORMATTED              ACCESS:SEQUENTIAL          
 ACTION:READ                


 OPENED ml.drn
 FILE TYPE:DRN6                   UNIT 1013   STATUS:OLD                 
 FORMAT:FORMATTED              ACCESS:SEQUENTIAL          
 ACTION:READ                


 OPENED ml.riv
 FILE TYPE:RIV6                   UNIT 1014   STATUS:OLD                 
 FORMAT:FORMATTED              ACCESS:SEQUENTIAL          
 ACTION:READ                


 DISV -- VERTEX GRID DISCRETIZATION PACKAGE, VERSION 1 : 12/23/2015 - INPUT READ FROM UNIT 1005


 # File generated by Flopy version 3.3.5 on 04/28/2022 at 15:59:24.

 PROCESSING DISCRETIZATION OPTIONS
    MODEL LENGTH UNIT IS METERS
    XORIGIN SPECIFIED AS     405575.681000000    
    YORIGIN SPECIFIED AS     6423306.54000000    
 END OF DISCRETIZATION OPTIONS

 PROCESSING DISCRETIZATION DIMENSIONS
   NLAY = 1
   NCPL = 26674
   NVERT = 27090
 END OF DISCRETIZATION DIMENSIONS

 PROCESSING GRIDDATA
 END PROCESSING GRIDDATA

 PROCESSING VERTICES
   SUCCESSFULLY READ 27090 (X,Y) COORDINATES
   MINIMUM X COORDINATE =     405575.681000000    
   MAXIMUM X COORDINATE =     413975.681000000    
   MINIMUM Y COORDINATE =     6423306.54000000    
   MAXIMUM Y COORDINATE =     6432506.54000000    
 END PROCESSING VERTICES

 PROCESSING CELL2D
   SUCCESSFULLY READ 26674 CELL2D INFORMATION ENTRIES
   MINIMUM X CELL CENTER =     405675.681000000    
   MAXIMUM X CELL CENTER =     413875.681000000    
   MINIMUM Y CELL CENTER =     6423406.54000000    
   MAXIMUM Y CELL CENTER =     6432406.54000000    
   MAXIMUM NUMBER OF CELL2D VERTICES IS 6 FOR CELL 208
 END PROCESSING VERTICES

 NPF -- NODE PROPERTY FLOW PACKAGE, VERSION 1, 3/30/2015 INPUT READ FROM UNIT 1007


 # File generated by Flopy version 3.3.5 on 04/28/2022 at 15:59:27.
 PROCESSING NPF OPTIONS
    CELL-BY-CELL FLOW INFORMATION WILL BE SAVED TO BINARY FILE WHENEVER ICBCFL IS NOT ZERO.
    SPECIFIC DISCHARGE WILL BE CALCULATED AT CELL CENTERS AND WRITTEN TO DATA-SPDIS IN BUDGET FILE WHEN REQUESTED.
 END OF NPF OPTIONS

 WEL   -- WEL PACKAGE, VERSION 8, 2/22/2014 INPUT READ FROM UNIT 1012
 # File generated by Flopy version 3.3.5 on 04/28/2022 at 15:59:27.

 PROCESSING WEL OPTIONS
    WEL BOUNDARIES HAVE NAMES IN LAST COLUMN.
    FLOWS WILL BE SAVED TO BUDGET FILE SPECIFIED IN OUTPUT CONTROL
 END OF WEL OPTIONS

 PROCESSING WEL DIMENSIONS
    MAXBOUND =       9
 END OF WEL DIMENSIONS

 DRN   -- DRN PACKAGE, VERSION 8, 2/22/2014 INPUT READ FROM UNIT 1013
 # File generated by Flopy version 3.3.5 on 04/28/2022 at 15:59:27.

 PROCESSING DRN OPTIONS
    DRN BOUNDARIES HAVE NAMES IN LAST COLUMN.
    FLOWS WILL BE SAVED TO BUDGET FILE SPECIFIED IN OUTPUT CONTROL

 OPENED ml.drn.obs
 FILE TYPE:OBS   UNIT 1016   STATUS:OLD                 
 FORMAT:FORMATTED              ACCESS:SEQUENTIAL          
 ACTION:READ                

 END OF DRN OPTIONS

 PROCESSING DRN DIMENSIONS
    MAXBOUND =     133
 END OF DRN DIMENSIONS

 RIV   -- RIV PACKAGE, VERSION 8, 2/22/2014 INPUT READ FROM UNIT 1014
 # File generated by Flopy version 3.3.5 on 04/28/2022 at 15:59:27.

 PROCESSING RIV OPTIONS
    AUXILIARY RIV VARIABLE: FID             
    RIV BOUNDARIES HAVE NAMES IN LAST COLUMN.
    FLOWS WILL BE SAVED TO BUDGET FILE SPECIFIED IN OUTPUT CONTROL
 END OF RIV OPTIONS

 PROCESSING RIV DIMENSIONS
    MAXBOUND =     794
 END OF RIV DIMENSIONS

 GHB   -- GHB PACKAGE, VERSION 8, 2/22/2014 INPUT READ FROM UNIT 1008
 # File generated by Flopy version 3.3.5 on 04/28/2022 at 15:59:27.

 PROCESSING GHB OPTIONS
    GHB BOUNDARIES HAVE NAMES IN LAST COLUMN.
    FLOWS WILL BE SAVED TO BUDGET FILE SPECIFIED IN OUTPUT CONTROL
 END OF GHB OPTIONS

 PROCESSING GHB DIMENSIONS
    MAXBOUND =     153
 END OF GHB DIMENSIONS

 RCH   -- RCH PACKAGE, VERSION 8, 2/22/2014 INPUT READ FROM UNIT 1009
 # File generated by Flopy version 3.3.5 on 04/28/2022 at 15:59:27.

 PROCESSING RCH OPTIONS
    RECHARGE INPUT WILL BE READ AS ARRAY(S).
    FLOWS WILL BE SAVED TO BUDGET FILE SPECIFIED IN OUTPUT CONTROL
 END OF RCH OPTIONS

 IC -- INITIAL CONDITIONS PACKAGE, VERSION 8, 3/28/2015 INPUT READ FROM UNIT 1006
 # File generated by Flopy version 3.3.5 on 04/28/2022 at 15:59:27.
 PROCESSING GRIDDATA

     INITIAL HEAD =   15.00000    
 END PROCESSING GRIDDATA
 PROCESSING GRIDDATA

                ICELLTYPE = 0

 OPENED ../com_ext/k.txt
 FILE TYPE:OPEN/CLOSE   UNIT 1017   STATUS:OLD                 
 FORMAT:FORMATTED              ACCESS:SEQUENTIAL          
 ACTION:READ                

 K33 not provided.  Assuming K33 = K.
 K22 not provided.  Assuming K22 = K.
 END PROCESSING GRIDDATA

The observation utility is active for "ML"
 # File generated by Flopy version 3.3.5 on 04/28/2022 at 15:59:27.

Processing observation options:

Text output number of digits of precision set to: 10
The PRINT_INPUT option has been specified.


 OBSERVATIONS READ FROM FILE "ml.obs"
 ----------------------------------------------------------------------------------------------------------------------------------------------------------------------------------------------------------------------------
 NAME                                     TYPE                                       TIME         LOCATION DATA                              OUTPUT FILENAME                                                                 
 ----------------------------------------------------------------------------------------------------------------------------------------------------------------------------------------------------------------------------
 PRG                                      CONTINUOUS  HEAD                           ALL TIMES    "1 16523"                                  sim/hds.csv                                                                     
 P8                                       CONTINUOUS  HEAD                           ALL TIMES    "1 10323"                                  sim/hds.csv                                                                     
 P24                                      CONTINUOUS  HEAD                           ALL TIMES    "1 9594"                                   sim/hds.csv                                                                     
 P25                                      CONTINUOUS  HEAD                           ALL TIMES    "1 13966"                                  sim/hds.csv                                                                     
 P32                                      CONTINUOUS  HEAD                           ALL TIMES    "1 15787"                                  sim/hds.csv                                                                     
 P33                                      CONTINUOUS  HEAD                           ALL TIMES    "1 15825"                                  sim/hds.csv                                                                     
 PF                                       CONTINUOUS  HEAD                           ALL TIMES    "1 21048"                                  sim/hds.csv                                                                     
 PH                                       CONTINUOUS  HEAD                           ALL TIMES    "1 20781"                                  sim/hds.csv                                                                     
 PZHM1                                    CONTINUOUS  HEAD                           ALL TIMES    "1 14521"                                  sim/hds.csv                                                                     
 P26                                      CONTINUOUS  HEAD                           ALL TIMES    "1 13141"                                  sim/hds.csv                                                                     
 P27                                      CONTINUOUS  HEAD                           ALL TIMES    "1 8465"                                   sim/hds.csv                                                                     
 P28                                      CONTINUOUS  HEAD                           ALL TIMES    "1 8924"                                   sim/hds.csv                                                                     
 P29                                      CONTINUOUS  HEAD                           ALL TIMES    "1 4524"                                   sim/hds.csv                                                                     
 P30                                      CONTINUOUS  HEAD                           ALL TIMES    "1 5255"                                   sim/hds.csv                                                                     
 R20                                      CONTINUOUS  HEAD                           ALL TIMES    "1 10676"                                  sim/hds.csv                                                                     
 R21                                      CONTINUOUS  HEAD                           ALL TIMES    "1 10403"                                  sim/hds.csv                                                                     
 P34                                      CONTINUOUS  HEAD                           ALL TIMES    "1 15131"                                  sim/hds.csv                                                                     
 P37                                      CONTINUOUS  HEAD                           ALL TIMES    "1 15755"                                  sim/hds.csv                                                                     
 P38                                      CONTINUOUS  HEAD                           ALL TIMES    "1 15045"                                  sim/hds.csv                                                                     
 P39                                      CONTINUOUS  HEAD                           ALL TIMES    "1 9637"                                   sim/hds.csv                                                                     
 P40                                      CONTINUOUS  HEAD                           ALL TIMES    "1 9312"                                   sim/hds.csv                                                                     
 AP1                                      CONTINUOUS  HEAD                           ALL TIMES    "1 9702"                                   sim/hds.csv                                                                     
 RCK1                                     CONTINUOUS  HEAD                           ALL TIMES    "1 15900"                                  sim/hds.csv                                                                     
 RCK2                                     CONTINUOUS  HEAD                           ALL TIMES    "1 15199"                                  sim/hds.csv                                                                     
 P23                                      CONTINUOUS  HEAD                           ALL TIMES    "1 6409"                                   sim/hds.csv                                                                     
 ----------------------------------------------------------------------------------------------------------------------------------------------------------------------------------------------------------------------------


    BINARY GRID INFORMATION WILL BE WRITTEN TO:
      UNIT NUMBER: 1019
      FILE NAME: /srv/common/ptrack/case_study/pst/ml_08/./ml.disv.grb

 OPENED /srv/common/ptrack/case_study/pst/ml_08/./ml.disv.grb
 FILE TYPE:DATA(BINARY)   UNIT 1019   STATUS:REPLACE             
 FORMAT:UNFORMATTED            ACCESS:STREAM              
 ACTION:READWRITE           

      THE LAST TIME STEP WILL BE PRINTED
      THE LAST TIME STEP WILL BE PRINTED
 # File generated by Flopy version 3.3.5 on 04/28/2022 at 15:59:27.

 PROCESSING OC OPTIONS

    BUDGET INFORMATION WILL BE WRITTEN TO:
      UNIT NUMBER: 1020
      FILE NAME: ml.cbc

 OPENED ml.cbc
 FILE TYPE:DATA(BINARY)   UNIT 1020   STATUS:REPLACE             
 FORMAT:UNFORMATTED            ACCESS:STREAM              
 ACTION:READWRITE           

    HEAD INFORMATION WILL BE WRITTEN TO:
      UNIT NUMBER: 1021
      FILE NAME: ml.hds

 OPENED ml.hds
 FILE TYPE:DATA(BINARY)   UNIT 1021   STATUS:REPLACE             
 FORMAT:UNFORMATTED            ACCESS:STREAM              
 ACTION:READWRITE           

 END OF OC OPTIONS

The observation utility is active for "DRN_0"
 # File generated by Flopy version 3.3.5 on 04/28/2022 at 15:59:27.

Processing observation options:



start timestep kper="1" kstp="1" mode="normal"


 BEGIN READING OUTPUT CONTROL FOR STRESS PERIOD 1
      THE LAST TIME STEP WILL BE SAVED
      THE LAST TIME STEP WILL BE SAVED

 END READING OUTPUT CONTROL FOR STRESS PERIOD 1

 OPENED ext/wel_spd_1.txt
 FILE TYPE:OPEN/CLOSE   UNIT 1023   STATUS:OLD                 
 FORMAT:FORMATTED              ACCESS:SEQUENTIAL          
 ACTION:READ                


 OPENED ext/drn_spd_1.txt
 FILE TYPE:OPEN/CLOSE   UNIT 1024   STATUS:OLD                 
 FORMAT:FORMATTED              ACCESS:SEQUENTIAL          
 ACTION:READ                


 OPENED ext/riv_spd_1.txt
 FILE TYPE:OPEN/CLOSE   UNIT 1025   STATUS:OLD                 
 FORMAT:FORMATTED              ACCESS:SEQUENTIAL          
 ACTION:READ                


 OPENED ../com_ext/ghb_spd_1.txt
 FILE TYPE:OPEN/CLOSE   UNIT 1026   STATUS:OLD                 
 FORMAT:FORMATTED              ACCESS:SEQUENTIAL          
 ACTION:READ                


 OPENED ../com_ext/rech_spd_1.txt
 FILE TYPE:OPEN/CLOSE   UNIT 1027   STATUS:OLD                 
 FORMAT:FORMATTED              ACCESS:SEQUENTIAL          
 ACTION:READ                


 SLN_1 INNER ITERATION SUMMARY
 --------------------------------------------------------------------------------------------------------------------------------------
      TOTAL      OUTER      INNER                                                            MAXIMUM                                   
  ITERATION  ITERATION  ITERATION  MAXIMUM CHANGE      MAXIMUM CHANGE MODEL-(CELLID)        RESIDUAL    MAXIMUM RESIDUAL MODEL-(CELLID)
 --------------------------------------------------------------------------------------------------------------------------------------
          1          1          1      -11.761856                    1_GWF-(1,12785)      0.32866346                    1_GWF-(1,11169)
          2          1          2       5.5372534                    1_GWF-(1,26601)     -0.22675517                    1_GWF-(1,11169)
          3          1          3       5.7753617                    1_GWF-(1,26565)     -0.13984428                    1_GWF-(1,11178)
          4          1          4       5.9229669                    1_GWF-(1,26512)      0.16228471                    1_GWF-(1,11178)
          5          1          5       5.6119800                    1_GWF-(1,26611)     -0.12319260                    1_GWF-(1,11180)
          6          1          6       5.9514088                    1_GWF-(1,26649)     -0.11605800                    1_GWF-(1,11157)
          7          1          7       4.8564753                    1_GWF-(1,26622) -6.89550023E-02                    1_GWF-(1,11158)
          8          1          8       3.9285558                    1_GWF-(1,26665) -6.90069551E-02                    1_GWF-(1,11180)
          9          1          9      -3.2787721                    1_GWF-(1,26665)  5.24412727E-02                    1_GWF-(1,11051)
         10          1         10      -2.8642877                    1_GWF-(1,26666) -5.58595328E-02                    1_GWF-(1,11158)
         11          1         11       2.5889932                    1_GWF-(1,26544) -5.92891703E-02                    1_GWF-(1,11180)
         12          1         12      -2.8668223                    1_GWF-(1,26622)  3.97787216E-02                    1_GWF-(1,11058)
         13          1         13      -3.4382163                    1_GWF-(1,26649)  4.33889401E-02                    1_GWF-(1,11180)
         14          1         14      -2.6246010                    1_GWF-(1,26622) -4.11003388E-02                    1_GWF-(1,11180)
         15          1         15      -1.7584917                    1_GWF-(1,26623)  2.85640498E-02                    1_GWF-(1,11026)
         16          1         16       1.4103345                    1_GWF-(1,26623)  4.88474957E-02                    1_GWF-(1,11180)
         17          1         17       1.6539683                    1_GWF-(1,26665)  4.00269288E-02                    1_GWF-(1,11051)
         18          1         18       2.0252994                    1_GWF-(1,26588) -3.40804444E-02                    1_GWF-(1,11194)
         19          1         19      -2.1636650                    1_GWF-(1,26588)  3.99385251E-02                    1_GWF-(1,11180)
         20          1         20      -1.7738495                    1_GWF-(1,26543) -2.49039812E-02                    1_GWF-(1,11104)
         21          1         21      -1.3888448                    1_GWF-(1,26544) -2.96078273E-02                    1_GWF-(1,11194)
         22          1         22      -1.6813295                    1_GWF-(1,26486)  3.21799587E-02                    1_GWF-(1,11180)
         23          1         23      -2.0871393                    1_GWF-(1,26487) -2.60098767E-02                    1_GWF-(1,11106)
         24          1         24      -2.2694084                    1_GWF-(1,26486) -2.95907186E-02                    1_GWF-(1,11194)
         25          1         25       1.9347819                    1_GWF-(1,26420) -3.54351553E-02                    1_GWF-(1,11109)
         26          1         26       2.1131780                    1_GWF-(1,26487)  2.81073114E-02                    1_GWF-(1,11151)
         27          1         27       1.8282262                    1_GWF-(1,26420) -2.78256273E-02                    1_GWF-(1,11101)
         28          1         28       1.2282156                    1_GWF-(1,26487) -3.15347266E-02                    1_GWF-(1,11109)
         29          1         29      0.89175133                    1_GWF-(1,26420)  3.32134519E-02                    1_GWF-(1,11109)
         30          1         30     -0.87936611                    1_GWF-(1,26420)  3.43817733E-02                    1_GWF-(1,11110)
         31          1         31      -1.1886126                    1_GWF-(1,26422)  2.78204587E-02                    1_GWF-(1,11105)
         32          1         32      -1.3062392                    1_GWF-(1,26350)  2.41521789E-02                     1_GWF-(1,5617)
         33          1         33      -1.4236168                    1_GWF-(1,26422)  2.89839006E-02                    1_GWF-(1,11110)
         34          1         34      -1.2119135                    1_GWF-(1,26350)  2.78042238E-02                    1_GWF-(1,11105)
         35          1         35     -0.95899062                    1_GWF-(1,26422) -3.53760682E-02                    1_GWF-(1,11105)
         36          1         36      0.87348801                    1_GWF-(1,20921) -3.96931657E-02                    1_GWF-(1,11114)
         37          1         37     -0.98545019                    1_GWF-(1,25240)  2.76508342E-02                    1_GWF-(1,11114)
         38          1         38      -1.0801186                    1_GWF-(1,25322)  3.22859771E-02                    1_GWF-(1,11103)
         39          1         39      -1.1759382                    1_GWF-(1,25455) -3.62688724E-02                    1_GWF-(1,11096)
         40          1         40      -1.1477902                    1_GWF-(1,20223)  3.70875535E-02                    1_GWF-(1,15107)
         41          1         41      -1.2223759                    1_GWF-(1,21381)  3.88134808E-02                    1_GWF-(1,11093)
         42          1         42      -1.4645491                    1_GWF-(1,21458) -4.25322317E-02                    1_GWF-(1,11093)
         43          1         43      -1.8013365                    1_GWF-(1,21462) -4.80134788E-02                    1_GWF-(1,11094)
         44          1         44      -1.9484137                    1_GWF-(1,21417)  4.85112879E-02                    1_GWF-(1,15107)
         45          1         45      -1.5961776                    1_GWF-(1,21435)  3.54538103E-02                    1_GWF-(1,11091)
         46          1         46      -1.3146155                    1_GWF-(1,20575)  3.13766396E-02                    1_GWF-(1,11093)
         47          1         47      -1.2600907                    1_GWF-(1,20920)  2.89838987E-02                    1_GWF-(1,11094)
         48          1         48      -1.2123095                    1_GWF-(1,26218) -2.58904256E-02                    1_GWF-(1,11094)
         49          1         49      -1.2111816                    1_GWF-(1,26217) -2.42654898E-02                    1_GWF-(1,11091)
         50          1         50      -1.4018395                    1_GWF-(1,26218)  2.02080140E-02                    1_GWF-(1,14801)
         51          2          1      -20.909999                    1_GWF-(1,26519) -8.81956471E-02                    1_GWF-(1,26519)
         52          2          2      -8.0818869                    1_GWF-(1,26569) -3.50310080E-02                    1_GWF-(1,26516)
         53          2          3      -4.1474353                    1_GWF-(1,26637)  2.18037114E-02                    1_GWF-(1,26516)
         54          2          4      -4.0892847                    1_GWF-(1,26665) -1.53411937E-02                    1_GWF-(1,26519)
         55          2          5      -2.7212108                    1_GWF-(1,26648)  1.25879971E-02                    1_GWF-(1,14799)
         56          2          6      -2.0338532                    1_GWF-(1,26586)  1.29375175E-02                    1_GWF-(1,14801)
         57          2          7      -1.8236361                    1_GWF-(1,26543)  1.15325530E-02                    1_GWF-(1,14799)
         58          2          8      -1.6939377                    1_GWF-(1,26486)  1.21040470E-02                    1_GWF-(1,14801)
         59          2          9      -1.4397893                    1_GWF-(1,26487)  1.05399497E-02                    1_GWF-(1,14799)
         60          2         10      -1.4001229                    1_GWF-(1,26218)  1.02249804E-02                    1_GWF-(1,14801)
         61          2         11      -1.4020896                    1_GWF-(1,26422)  9.19871693E-03                    1_GWF-(1,14801)
         62          2         12      -1.1441115                    1_GWF-(1,26217)  8.24471630E-03                    1_GWF-(1,14799)
         63          2         13      -1.0490133                    1_GWF-(1,26218)  8.52635148E-03                    1_GWF-(1,14801)
         64          2         14     -0.68490725                    1_GWF-(1,26649)  7.68667612E-03                    1_GWF-(1,14801)
         65          2         15     -0.62972351                    1_GWF-(1,26622)  7.53714475E-03                    1_GWF-(1,14801)
         66          2         16      0.96371001                    1_GWF-(1,26420)  8.08554239E-03                    1_GWF-(1,14801)
         67          2         17       1.2611769                    1_GWF-(1,26350)  7.54260272E-03                    1_GWF-(1,14799)
         68          2         18      0.97162676                    1_GWF-(1,26217)  7.92832811E-03                    1_GWF-(1,14801)
         69          2         19      0.71015602                    1_GWF-(1,26218)  7.96839277E-03                    1_GWF-(1,14801)
         70          2         20      0.51901586                    1_GWF-(1,26486)  7.60703023E-03                    1_GWF-(1,14799)
         71          2         21      0.83607007                    1_GWF-(1,26588)  8.12643793E-03                    1_GWF-(1,14801)
         72          2         22      0.93272961                    1_GWF-(1,26543)  7.71549998E-03                    1_GWF-(1,14801)
         73          2         23      0.60504453                    1_GWF-(1,25712)  8.04352874E-03                    1_GWF-(1,14801)
         74          2         24     -0.62853752                    1_GWF-(1,26422)  9.20983477E-03                    1_GWF-(1,14801)
         75          2         25     -0.85754740                    1_GWF-(1,26486)  9.28669138E-03                    1_GWF-(1,14799)
         76          2         26     -0.92991017                    1_GWF-(1,26487)  9.90777382E-03                    1_GWF-(1,14801)
         77          2         27     -0.59414812                    1_GWF-(1,26420)  1.01068657E-02                    1_GWF-(1,14801)
         78          2         28      0.32994545                    1_GWF-(1,25453)  9.88163176E-03                    1_GWF-(1,14799)
         79          2         29      0.38623048                    1_GWF-(1,26487)  1.06951534E-02                    1_GWF-(1,14801)
         80          2         30      0.40403843                    1_GWF-(1,26420)  1.03206053E-02                    1_GWF-(1,14799)
         81          2         31      0.34819974                    1_GWF-(1,25266)  1.09559857E-02                    1_GWF-(1,14801)
         82          2         32     -0.32957697                    1_GWF-(1,26157)  1.06889609E-02                    1_GWF-(1,14799)
         83          2         33     -0.30308430                    1_GWF-(1,26150)  1.03571660E-02                    1_GWF-(1,14801)
         84          2         34      0.26286108                    1_GWF-(1,26586)  9.05721932E-03                    1_GWF-(1,14799)
         85          2         35      0.33365204                    1_GWF-(1,26623)  8.27277739E-03                    1_GWF-(1,14801)
         86          2         36      0.27237054                    1_GWF-(1,26649)  6.74419905E-03                    1_GWF-(1,14799)
         87          2         37     -0.32610837                    1_GWF-(1,26350)  6.73264801E-03                    1_GWF-(1,14801)
         88          2         38     -0.31415873                    1_GWF-(1,26422)  6.46783659E-03                    1_GWF-(1,14801)
         89          2         39     -0.34886770                    1_GWF-(1,26649)  6.88379468E-03                    1_GWF-(1,14799)
         90          2         40     -0.38775349                    1_GWF-(1,26422)  7.40551780E-03                    1_GWF-(1,14801)
         91          2         41     -0.27547194                    1_GWF-(1,26420)  7.45760238E-03                    1_GWF-(1,14799)
         92          2         42      0.31306762                    1_GWF-(1,26350)  8.05597650E-03                    1_GWF-(1,14801)
         93          2         43     -0.29423257                    1_GWF-(1,26350)  7.55276142E-03                    1_GWF-(1,14799)
         94          2         44      0.34545932                    1_GWF-(1,21278)  7.72440967E-03                    1_GWF-(1,14801)
         95          2         45      0.40921808                    1_GWF-(1,21264)  6.54178361E-03                    1_GWF-(1,26625)
         96          2         46      0.43055268                    1_GWF-(1,20917)  4.61900889E-03                    1_GWF-(1,14801)
         97          2         47      0.36284858                    1_GWF-(1,20232) -3.45841153E-03                    1_GWF-(1,15940)
         98          2         48     -0.31865704                    1_GWF-(1,26665)  7.63272250E-03                    1_GWF-(1,26625)
         99          2         49     -0.33085373                    1_GWF-(1,21377) -6.44993029E-03                    1_GWF-(1,26625)
        100          2         50     -0.41739436                    1_GWF-(1,21349)  6.32970312E-03                    1_GWF-(1,15109)
        101          3          1      -1.0120129                    1_GWF-(1,16214) -4.04916312E-03                    1_GWF-(1,11460)
        102          3          2     -0.57364418                    1_GWF-(1,16200)  3.54437556E-03                    1_GWF-(1,15109)
        103          3          3     -0.38777538                    1_GWF-(1,16233)  4.94497671E-03                    1_GWF-(1,15108)
        104          3          4     -0.33280562                    1_GWF-(1,16536) -4.93297876E-03                    1_GWF-(1,15108)
        105          3          5     -0.26360896                    1_GWF-(1,21263) -3.70361583E-03                    1_GWF-(1,15109)
        106          3          6     -0.26917736                    1_GWF-(1,21260) -2.92891073E-03                    1_GWF-(1,15108)
        107          3          7      0.24243858                    1_GWF-(1,16538)  2.33017058E-03                    1_GWF-(1,15107)
        108          3          8      0.17731066                    1_GWF-(1,16545)  2.20332738E-03                    1_GWF-(1,11460)
        109          3          9     -0.16716281                    1_GWF-(1,16537)  2.19449056E-03                    1_GWF-(1,14799)
        110          3         10     -0.20949767                    1_GWF-(1,16542)  2.85909113E-03                    1_GWF-(1,14801)
        111          3         11     -0.19112110                    1_GWF-(1,16569)  3.29727537E-03                    1_GWF-(1,14799)
        112          3         12      0.18645204                    1_GWF-(1,26350)  2.86122442E-03                    1_GWF-(1,15108)
        113          3         13      0.21700600                    1_GWF-(1,26422) -2.58856347E-03                    1_GWF-(1,15108)
        114          3         14      0.23286335                    1_GWF-(1,26350)  2.17063266E-03                    1_GWF-(1,15108)
        115          3         15      0.19277546                    1_GWF-(1,26422)  1.70568304E-03                    1_GWF-(1,14801)
        116          3         16     -0.13918495                    1_GWF-(1,26422)  1.66531615E-03                    1_GWF-(1,14799)
        117          3         17     -0.10942222                    1_GWF-(1,26350)  1.84697188E-03                    1_GWF-(1,15021)
        118          3         18      0.14182607                    1_GWF-(1,11576)  2.34076848E-03                    1_GWF-(1,14936)
        119          3         19     -0.11706527                    1_GWF-(1,26586)  3.55480437E-03                    1_GWF-(1,14801)
        120          3         20     -0.11712803                    1_GWF-(1,16116)  4.58890661E-03                    1_GWF-(1,14799)
        121          3         21     -0.11710688                    1_GWF-(1,16803)  4.04054061E-03                    1_GWF-(1,14801)
        122          3         22     -0.11723790                    1_GWF-(1,11714)  3.45027337E-03                    1_GWF-(1,14799)
        123          3         23     -0.10810641                    1_GWF-(1,25444)  2.71390897E-03                    1_GWF-(1,15107)
        124          3         24     -0.10741848                    1_GWF-(1,25492)  2.56122056E-03                    1_GWF-(1,14801)
        125          3         25      0.16558347                    1_GWF-(1,26487)  2.25718421E-03                    1_GWF-(1,14801)
        126          3         26      0.19707376                    1_GWF-(1,26420)  1.82994140E-03                    1_GWF-(1,14801)
        127          3         27      0.20906716                    1_GWF-(1,26487)  2.05236364E-03                    1_GWF-(1,15109)
        128          3         28      0.14265736                    1_GWF-(1,26420)  2.65691334E-03                    1_GWF-(1,15107)
        129          3         29     -0.11546104                    1_GWF-(1,25720) -1.96230065E-03                    1_GWF-(1,15107)
        130          3         30     -0.15342081                    1_GWF-(1,26588)  1.74933874E-03                    1_GWF-(1,15107)
        131          3         31     -0.18417819                    1_GWF-(1,26543)  2.08811439E-03                    1_GWF-(1,14801)
        132          3         32     -0.16455397                    1_GWF-(1,26588)  2.12475650E-03                    1_GWF-(1,14799)
        133          3         33     -0.14185907                    1_GWF-(1,26543)  2.68159210E-03                    1_GWF-(1,15107)
        134          3         34     -0.13999905                    1_GWF-(1,26350) -3.07140457E-03                    1_GWF-(1,15107)
        135          3         35     -0.14637212                    1_GWF-(1,21418)  2.67729554E-03                    1_GWF-(1,15107)
        136          3         36     -0.14703005                    1_GWF-(1,21485)  1.53120261E-03                    1_GWF-(1,10342)
        137          3         37      0.13994171                    1_GWF-(1,26623)  1.79146463E-03                    1_GWF-(1,14938)
        138          3         38      0.14624894                    1_GWF-(1,26622)  3.17906187E-03                    1_GWF-(1,15107)
        139          3         39      0.12783427                    1_GWF-(1,26649)  2.05180971E-03                    1_GWF-(1,14938)
        140          3         40     -0.13563547                    1_GWF-(1,26649)  2.06350883E-03                    1_GWF-(1,14801)
        141          3         41      0.14525724                    1_GWF-(1,26665)  2.32138217E-03                    1_GWF-(1,14801)
        142          3         42     -0.18338487                    1_GWF-(1,26665) -2.85224013E-03                    1_GWF-(1,15107)
        143          3         43     -0.12946559                    1_GWF-(1,26666)  3.11949044E-03                    1_GWF-(1,15107)
        144          3         44 -9.79195666E-02                    1_GWF-(1,26665)  2.06249004E-03                    1_GWF-(1,14799)
        145          3         45      0.10684794                    1_GWF-(1,26588)  3.07552744E-03                    1_GWF-(1,15107)
        146          3         46      0.10882850                    1_GWF-(1,26648)  1.53345318E-03                    1_GWF-(1,14938)
        147          3         47      0.11433559                    1_GWF-(1,26649)  1.72349517E-03                    1_GWF-(1,15109)
        148          3         48     -0.10332265                    1_GWF-(1,26218)  2.13946126E-03                    1_GWF-(1,15108)
        149          3         49 -9.66456653E-02                    1_GWF-(1,26217)  2.73046532E-03                    1_GWF-(1,14801)
        150          3         50     -0.12353581                    1_GWF-(1,26649)  3.70946784E-03                    1_GWF-(1,15107)
        151          4          1  8.28785370E-02                    1_GWF-(1,26218)  2.58979576E-03                    1_GWF-(1,14938)
        152          4          2 -8.08247715E-02                    1_GWF-(1,26218)  2.99786153E-03                    1_GWF-(1,15107)
        153          4          3 -8.72886520E-02                    1_GWF-(1,26217) -1.98148489E-03                    1_GWF-(1,15107)
        154          4          4 -9.07588835E-02                    1_GWF-(1,26218)  2.13384929E-03                    1_GWF-(1,15107)
        155          4          5 -7.05595889E-02                    1_GWF-(1,26217)  1.21367076E-03                    1_GWF-(1,14938)
        156          4          6 -6.74301405E-02                    1_GWF-(1,26218)  8.11173019E-04                    1_GWF-(1,10342)
        157          4          7  7.74463048E-02                    1_GWF-(1,26665)  8.58922646E-04                    1_GWF-(1,10342)
        158          4          8  6.22778593E-02                    1_GWF-(1,26647)  1.12506746E-03                    1_GWF-(1,14801)
        159          4          9  8.42277007E-02                    1_GWF-(1,26665)  1.19438756E-03                    1_GWF-(1,14801)
        160          4         10 -8.50488437E-02                    1_GWF-(1,26665)  1.19318592E-03                    1_GWF-(1,14799)
        161          4         11  7.07427355E-02                    1_GWF-(1,26665)  7.38870710E-04                    1_GWF-(1,14801)
        162          4         12 -7.26884547E-02                    1_GWF-(1,26649)  1.17495571E-03                    1_GWF-(1,15107)
        163          4         13 -7.08053607E-02                    1_GWF-(1,26622)  1.09735786E-03                    1_GWF-(1,14938)
        164          4         14 -5.94709414E-02                    1_GWF-(1,26649)  9.22338470E-04                    1_GWF-(1,15107)
        165          4         15 -5.82726567E-02                    1_GWF-(1,26622)  7.27952501E-04                    1_GWF-(1,10342)
        166          4         16  6.55008939E-02                    1_GWF-(1,21411)  6.58718052E-04                    1_GWF-(1,15109)
        167          4         17  6.23978036E-02                    1_GWF-(1,21405)  1.02685208E-03                    1_GWF-(1,15107)
        168          4         18  5.16296052E-02                    1_GWF-(1,24704)  1.20591474E-03                    1_GWF-(1,14799)
        169          4         19  5.64420761E-02                    1_GWF-(1,26588)  1.28823570E-03                    1_GWF-(1,14801)
        170          4         20  5.50221087E-02                    1_GWF-(1,26543)  1.06344654E-03                    1_GWF-(1,14799)
        171          4         21  4.74284295E-02                    1_GWF-(1,26588)  7.44401631E-04                    1_GWF-(1,14801)
        172          4         22 -4.75779348E-02                    1_GWF-(1,26487)  1.12998796E-03                    1_GWF-(1,15107)
        173          4         23 -4.72557900E-02                    1_GWF-(1,26486)  1.12971796E-03                    1_GWF-(1,14938)
        174          4         24 -5.07053432E-02                    1_GWF-(1,26487)  1.13854219E-03                    1_GWF-(1,15107)
        175          4         25  5.04496996E-02                    1_GWF-(1,26487)  5.58529474E-04                    1_GWF-(1,14799)
        176          4         26  5.39474586E-02                    1_GWF-(1,26420)  7.25963145E-04                    1_GWF-(1,14801)
        177          4         27  3.93123608E-02                    1_GWF-(1,26487)  1.43365612E-03                    1_GWF-(1,15107)
        178          4         28  3.03505576E-02                    1_GWF-(1,11744)  1.29307450E-03                    1_GWF-(1,14799)
        179          4         29  3.55714922E-02                    1_GWF-(1,26543)  1.85561293E-03                    1_GWF-(1,15107)
        180          4         30  3.55110780E-02                    1_GWF-(1,26586)  1.32203175E-03                    1_GWF-(1,14799)
        181          4         31  3.54622428E-02                    1_GWF-(1,26623)  1.57210006E-03                    1_GWF-(1,15107)
        182          4         32  3.12971462E-02                     1_GWF-(1,8442) -1.30596680E-03                    1_GWF-(1,15107)
        183          4         33  2.16237723E-02                     1_GWF-(1,8212)  1.82904504E-03                    1_GWF-(1,15107)
        184          4         34  2.88489775E-02                    1_GWF-(1,26350)  9.32261674E-04                    1_GWF-(1,14938)
        185          4         35  3.45018217E-02                    1_GWF-(1,26422)  7.20203196E-04                    1_GWF-(1,14798)
        186          4         36 -3.43403513E-02                    1_GWF-(1,26422)  6.12880171E-04                    1_GWF-(1,14801)
        187          4         37 -4.34093073E-02                    1_GWF-(1,26350)  8.11761211E-04                    1_GWF-(1,14801)
        188          4         38 -4.73004656E-02                    1_GWF-(1,26422)  1.13839404E-03                    1_GWF-(1,15107)
        189          4         39 -4.93138621E-02                    1_GWF-(1,26350) -1.04461252E-03                    1_GWF-(1,15107)
        190          4         40 -5.10250277E-02                    1_GWF-(1,26422)  1.25759936E-03                    1_GWF-(1,15107)
        191          4         41 -3.86508820E-02                    1_GWF-(1,26350)  6.94278494E-04                    1_GWF-(1,15022)
        192          4         42 -2.79263561E-02                    1_GWF-(1,20575)  8.29324266E-04                    1_GWF-(1,15107)
        193          4         43 -2.31167459E-02                    1_GWF-(1,16545)  3.92754672E-04                    1_GWF-(1,15939)
        194          4         44 -2.72078133E-02                    1_GWF-(1,16538)  5.46283480E-04                    1_GWF-(1,15109)
        195          4         45 -2.81160122E-02                    1_GWF-(1,16237) -4.11502225E-04                    1_GWF-(1,15109)
        196          4         46 -2.31648256E-02                    1_GWF-(1,16230)  5.25278294E-04                    1_GWF-(1,14799)
        197          4         47  3.06042694E-02                    1_GWF-(1,16536)  6.30941269E-04                    1_GWF-(1,14801)
        198          4         48  3.59173433E-02                    1_GWF-(1,16192)  7.16394198E-04                    1_GWF-(1,14799)
        199          4         49  4.18907274E-02                    1_GWF-(1,16200)  9.08429721E-04                    1_GWF-(1,15107)
        200          4         50  3.64603048E-02                    1_GWF-(1,14464) -1.88604622E-03                    1_GWF-(1,15107)
        201          5          1 -5.54402022E-02                    1_GWF-(1,16203)  1.09213123E-03                    1_GWF-(1,15107)
        202          5          2 -3.32198623E-02                    1_GWF-(1,11421) -1.20381679E-03                    1_GWF-(1,15107)
        203          5          3 -2.81859447E-02                    1_GWF-(1,16236)  1.19116936E-03                    1_GWF-(1,15107)
        204          5          4 -2.45795828E-02                    1_GWF-(1,16583) -7.40102157E-04                    1_GWF-(1,15107)
        205          5          5 -2.44723035E-02                    1_GWF-(1,20233)  5.25561259E-04                    1_GWF-(1,15107)
        206          5          6 -1.97521370E-02                    1_GWF-(1,26486) -3.59082454E-04                    1_GWF-(1,15107)
        207          5          7  1.61890837E-02                    1_GWF-(1,11426)  3.24535205E-04                    1_GWF-(1,14801)
        208          5          8 -1.36933777E-02                    1_GWF-(1,16734)  4.33431274E-04                    1_GWF-(1,14798)
        209          5          9  1.69782742E-02                    1_GWF-(1,20572)  3.55095054E-04                    1_GWF-(1,14799)
        210          5         10  1.80499581E-02                    1_GWF-(1,26350)  6.75836749E-04                    1_GWF-(1,15107)
        211          5         11  1.93650922E-02                    1_GWF-(1,26422)  5.86673957E-04                    1_GWF-(1,14938)
        212          5         12  2.01139492E-02                    1_GWF-(1,26350)  8.59848078E-04                    1_GWF-(1,15107)
        213          5         13  2.34877735E-02                    1_GWF-(1,26422)  5.42226548E-04                    1_GWF-(1,14938)
        214          5         14  2.27856241E-02                    1_GWF-(1,26544)  5.02792699E-04                    1_GWF-(1,15107)
        215          5         15  2.38151256E-02                    1_GWF-(1,26486)  4.04666006E-04                    1_GWF-(1,14798)
        216          5         16  1.83654443E-02                    1_GWF-(1,26544)  3.99611200E-04                    1_GWF-(1,14799)
        217          5         17  1.94770175E-02                    1_GWF-(1,26486)  6.35813838E-04                    1_GWF-(1,15107)
        218          5         18  1.42465343E-02                    1_GWF-(1,26588)  2.97220743E-04                    1_GWF-(1,14801)
        219          5         19 -1.57923665E-02                    1_GWF-(1,26588)  2.83446895E-04                    1_GWF-(1,14799)
        220          5         20  1.31386255E-02                    1_GWF-(1,26422)  5.40205020E-04                    1_GWF-(1,15107)
        221          5         21 -1.54076253E-02                    1_GWF-(1,26623)  5.54917879E-04                    1_GWF-(1,14938)
        222          5         22 -1.53313446E-02                    1_GWF-(1,25290)  7.99995992E-04                    1_GWF-(1,15107)
        223          5         23 -1.28458732E-02                    1_GWF-(1,25279) -7.05820388E-04                    1_GWF-(1,15107)
        224          5         24 -1.08367611E-02                    1_GWF-(1,26544)  8.13171004E-04                    1_GWF-(1,15107)
        225          5         25 -1.26404272E-02                    1_GWF-(1,26486) -5.90549958E-04                    1_GWF-(1,15107)
        226          5         26 -1.56843255E-02                    1_GWF-(1,26487)  2.82658581E-04                    1_GWF-(1,15107)
        227          5         27  1.70228905E-02                    1_GWF-(1,26622)  4.45049833E-04                    1_GWF-(1,15107)
        228          5         28  1.39896107E-02                    1_GWF-(1,26649)  4.14491726E-04                    1_GWF-(1,14938)
        229          5         29 -1.08015162E-02                    1_GWF-(1,24717)  5.06523884E-04                    1_GWF-(1,15107)
        230          5         30 -1.28832774E-02                    1_GWF-(1,24958) -4.54657073E-04                    1_GWF-(1,15107)
        231          5         31 -1.32351163E-02                    1_GWF-(1,24957)  5.67367137E-04                    1_GWF-(1,15107)
        232          5         32 -1.40163773E-02                    1_GWF-(1,24675)  3.51975462E-04                    1_GWF-(1,14799)
        233          5         33 -1.59829741E-02                    1_GWF-(1,24702)  2.90693492E-04                    1_GWF-(1,15107)
        234          5         34 -1.54211040E-02                    1_GWF-(1,24701)  1.62877896E-04                    1_GWF-(1,14800)
        235          5         35  1.37852102E-02                    1_GWF-(1,26543)  2.06706027E-04                    1_GWF-(1,14799)
        236          5         36  1.69710268E-02                    1_GWF-(1,26588) -2.39076700E-04                    1_GWF-(1,14938)
        237          5         37 -1.50484071E-02                    1_GWF-(1,21420) -2.60834529E-04                    1_GWF-(1,15107)
        238          5         38 -1.41142718E-02                    1_GWF-(1,24587)  3.08907923E-04                    1_GWF-(1,15107)
        239          5         39 -1.17338732E-02                    1_GWF-(1,24345)  2.02793521E-04                    1_GWF-(1,14798)
        240          5         40 -1.51023112E-02                    1_GWF-(1,26665) -1.89838376E-04                    1_GWF-(1,15107)
        241          5         41 -1.41360401E-02                    1_GWF-(1,26666)  2.37300902E-04                    1_GWF-(1,15107)
        242          5         42 -1.46898070E-02                    1_GWF-(1,26665)  2.92823720E-04                    1_GWF-(1,14801)
        243          5         43 -1.04906607E-02                    1_GWF-(1,26666)  2.07836365E-04                    1_GWF-(1,14799)
        244          5         44 -9.75677508E-03                    1_GWF-(1,26665)  1.51473944E-04                    1_GWF-(1,11460)
        245          5         45  1.14294270E-02                    1_GWF-(1,26218)  1.89110116E-04                    1_GWF-(1,14938)
        246          5         46  9.45217212E-03                    1_GWF-(1,26217)  3.72717784E-04                    1_GWF-(1,15107)
        247          5         47 -1.03306613E-02                    1_GWF-(1,26217) -3.36681365E-04                    1_GWF-(1,15107)
        248          5         48 -1.02535485E-02                    1_GWF-(1,26218)  4.37220109E-04                    1_GWF-(1,15107)
        249          5         49  1.04869741E-02                    1_GWF-(1,26218)  2.89559808E-04                    1_GWF-(1,14938)
        250          5         50  1.02919839E-02                    1_GWF-(1,26217)  3.49465006E-04                    1_GWF-(1,15107)
        251          6          1  8.13951385E-03                    1_GWF-(1,11456) -7.45736748E-04                    1_GWF-(1,11459)
        252          6          2  7.25476585E-03                    1_GWF-(1,26217)  4.56382841E-04                    1_GWF-(1,15107)
        253          6          3  1.26280406E-02                    1_GWF-(1,26218)  7.44684731E-04                    1_GWF-(1,11459)
        254          6          4 -1.05664829E-02                    1_GWF-(1,26218) -4.36357301E-04                    1_GWF-(1,11459)
        255          6          5  8.17686811E-03                    1_GWF-(1,21677)  1.14198950E-04                    1_GWF-(1,14938)
        256          6          6 -9.08094542E-03                    1_GWF-(1,26218)  2.26827887E-04                    1_GWF-(1,11459)
        257          6          7 -7.49343147E-03                    1_GWF-(1,26217) -2.58557595E-04                    1_GWF-(1,11459)
        258          6          8  7.22605286E-03                    1_GWF-(1,21666)  1.38067179E-04                    1_GWF-(1,14799)
        259          6          9  9.04948830E-03                    1_GWF-(1,26665)  1.87219798E-04                    1_GWF-(1,15107)
        260          6         10  9.17340187E-03                    1_GWF-(1,26666) -1.54844297E-04                    1_GWF-(1,11459)
        261          6         11  9.14008513E-03                    1_GWF-(1,26665)  1.01300864E-04                    1_GWF-(1,14798)
        262          6         12  9.84442003E-03                    1_GWF-(1,11456)  1.89489196E-04                    1_GWF-(1,15107)
        263          6         13  8.01594802E-03                    1_GWF-(1,24313) -1.70767369E-04                    1_GWF-(1,15107)
        264          6         14  7.89114566E-03                    1_GWF-(1,21421)  1.75875937E-04                    1_GWF-(1,15107)
        265          6         15  1.04298370E-02                    1_GWF-(1,11456)  1.05979567E-04                    1_GWF-(1,14938)
        266          6         16  6.72913855E-03                    1_GWF-(1,21413)  8.39161291E-05                    1_GWF-(1,14801)
        267          6         17 -7.36100789E-03                    1_GWF-(1,11456)  1.43812707E-04                    1_GWF-(1,15107)
        268          6         18  1.14007974E-02                    1_GWF-(1,11456)  1.68211417E-04                    1_GWF-(1,14799)
        269          6         19  5.60747989E-03                    1_GWF-(1,24678)  2.67218720E-04                    1_GWF-(1,15107)
        270          6         20 -6.09297707E-03                    1_GWF-(1,11456) -1.90124102E-04                    1_GWF-(1,15107)
        271          6         21  1.15569873E-02                    1_GWF-(1,11456)  1.99032058E-04                    1_GWF-(1,15107)
        272          6         22 -7.68698062E-03                    1_GWF-(1,11456) -1.60379293E-04                    1_GWF-(1,15107)
        273          6         23 -4.19587295E-03                    1_GWF-(1,26649)  1.73737402E-04                    1_GWF-(1,15107)
        274          6         24  8.18557355E-03                    1_GWF-(1,11456)  6.98821023E-05                    1_GWF-(1,15107)
        275          6         25  6.53559660E-03                    1_GWF-(1,26487) -1.59106672E-04                    1_GWF-(1,15107)
        276          6         26 -6.99418307E-03                    1_GWF-(1,11456)  2.31306988E-04                    1_GWF-(1,15107)
        277          6         27  1.06571991E-02                    1_GWF-(1,11456) -1.81595732E-04                    1_GWF-(1,15107)
        278          6         28 -5.70020581E-03                    1_GWF-(1,11456)  2.47600940E-04                    1_GWF-(1,15107)
        279          6         29  3.97233293E-03                    1_GWF-(1,26649)  1.36789269E-04                    1_GWF-(1,14938)
        280          6         30  9.01784601E-03                    1_GWF-(1,11456)  1.23472188E-04                    1_GWF-(1,15107)
        281          6         31 -6.36341531E-03                    1_GWF-(1,11456)  6.58986742E-05                    1_GWF-(1,14799)
        282          6         32  4.71735508E-03                    1_GWF-(1,26622)  8.59953089E-05                    1_GWF-(1,14801)
        283          6         33  6.99704783E-03                    1_GWF-(1,11456)  1.34234982E-04                    1_GWF-(1,15107)
        284          6         34 -4.65780483E-03                    1_GWF-(1,26623)  7.88538116E-05                    1_GWF-(1,14799)
        285          6         35 -4.88036139E-03                    1_GWF-(1,11456)  6.47143137E-05                    1_GWF-(1,14801)
        286          6         36  7.22753637E-03                    1_GWF-(1,11456)  9.14572212E-05                    1_GWF-(1,14801)
        287          6         37 -4.63060350E-03                    1_GWF-(1,26350)  9.62291467E-05                    1_GWF-(1,14938)
        288          6         38 -5.22488137E-03                    1_GWF-(1,26422)  1.70781973E-04                    1_GWF-(1,15107)
        289          6         39  6.99247854E-03                    1_GWF-(1,11456)  1.02192338E-04                    1_GWF-(1,14938)
        290          6         40 -4.67175225E-03                    1_GWF-(1,11456)  1.10146552E-04                    1_GWF-(1,15107)
        291          6         41 -3.80654918E-03                    1_GWF-(1,26350) -4.85895969E-05                    1_GWF-(1,15898)
        292          6         42  5.15813005E-03                    1_GWF-(1,11456)  6.94159227E-05                    1_GWF-(1,14801)
        293          6         43 -4.93231863E-03                    1_GWF-(1,11456)  7.97927937E-05                    1_GWF-(1,11455)
        294          6         44 -2.36456015E-03                    1_GWF-(1,16540) -8.56946717E-05                    1_GWF-(1,11455)
        295          6         45  2.97274641E-03                    1_GWF-(1,11456)  9.24829733E-05                    1_GWF-(1,15107)
        296          6         46 -4.76369607E-03                    1_GWF-(1,11456) -1.28748762E-04                    1_GWF-(1,15107)
        297          6         47  3.49047186E-03                    1_GWF-(1,16538)  1.51106564E-04                    1_GWF-(1,15107)
        298          6         48  3.82234048E-03                    1_GWF-(1,16194) -1.30218275E-04                    1_GWF-(1,15107)
        299          6         49  3.82133317E-03                    1_GWF-(1,16113)  1.57214167E-04                    1_GWF-(1,15107)
        300          6         50  4.93600041E-03                    1_GWF-(1,11456) -1.96661647E-04                    1_GWF-(1,11455)
        301          7          1 -8.45278337E-03                    1_GWF-(1,11456) -9.93304622E-05                    1_GWF-(1,11456)
        302          7          2 -3.78324687E-03                    1_GWF-(1,16232) -1.40131767E-04                    1_GWF-(1,15107)
        303          7          3 -3.03561970E-03                    1_GWF-(1,16236)  1.77102919E-04                    1_GWF-(1,15107)
        304          7          4 -3.19673392E-03                    1_GWF-(1,16580) -8.48742822E-05                    1_GWF-(1,15107)
        305          7          5 -4.14233624E-03                    1_GWF-(1,11455)  5.19893890E-05                    1_GWF-(1,14801)
        306          7          6  5.34312299E-03                    1_GWF-(1,11455) -3.90132688E-05                    1_GWF-(1,15107)
        307          7          7  3.47359498E-03                    1_GWF-(1,11380) -3.51791723E-05                    1_GWF-(1,11456)
        308          7          8 -1.84406263E-03                    1_GWF-(1,19052)  4.91855668E-05                    1_GWF-(1,14798)
        309          7          9  3.94931568E-03                    1_GWF-(1,11455)  4.10702832E-05                    1_GWF-(1,14938)
        310          7         10 -4.43118233E-03                    1_GWF-(1,11455)  8.59196916E-05                    1_GWF-(1,15107)
        311          7         11 -4.02574153E-03                    1_GWF-(1,11380)  7.05664731E-05                    1_GWF-(1,14938)
        312          7         12  2.46277365E-03                    1_GWF-(1,26350)  9.64807357E-05                    1_GWF-(1,15107)
        313          7         13  3.06038765E-03                    1_GWF-(1,26422)  6.20994138E-05                    1_GWF-(1,14938)
        314          7         14 -3.42850103E-03                    1_GWF-(1,11380)  5.92142677E-05                    1_GWF-(1,15107)
        315          7         15  2.33950933E-03                    1_GWF-(1,26623)  4.54711017E-05                    1_GWF-(1,14798)
        316          7         16  2.00610478E-03                    1_GWF-(1,26586)  4.90586268E-05                    1_GWF-(1,14799)
        317          7         17 -2.14483206E-03                    1_GWF-(1,11380)  6.73003811E-05                    1_GWF-(1,15107)
        318          7         18 -2.20883123E-03                    1_GWF-(1,26623) -4.17914082E-05                    1_GWF-(1,15107)
        319          7         19 -2.40861534E-03                    1_GWF-(1,26622)  2.40423607E-05                    1_GWF-(1,10342)
        320          7         20 -2.62448701E-03                    1_GWF-(1,26649)  4.24375928E-05                    1_GWF-(1,15107)
        321          7         21 -1.98317009E-03                    1_GWF-(1,26648)  5.82941337E-05                    1_GWF-(1,14938)
        322          7         22 -1.74371795E-03                    1_GWF-(1,25292)  1.06749381E-04                    1_GWF-(1,15107)
        323          7         23 -1.90576689E-03                    1_GWF-(1,26486) -6.50288628E-05                    1_GWF-(1,15107)
        324          7         24 -1.94645257E-03                    1_GWF-(1,26487)  4.95282747E-05                    1_GWF-(1,15107)
        325          7         25 -2.53123991E-03                    1_GWF-(1,26420)  2.71848609E-05                    1_GWF-(1,14801)
        326          7         26 -2.58957588E-03                    1_GWF-(1,26487) -3.68609513E-05                    1_GWF-(1,15107)
        327          7         27 -2.01972350E-03                    1_GWF-(1,26420)  8.31034174E-05                    1_GWF-(1,15107)
        328          7         28 -1.36680788E-03                    1_GWF-(1,24419)  5.00292754E-05                    1_GWF-(1,14938)
        329          7         29 -1.44858812E-03                    1_GWF-(1,24429)  3.79667406E-05                    1_GWF-(1,15107)
        330          7         30 -1.50799340E-03                    1_GWF-(1,24961)  2.37464396E-05                    1_GWF-(1,14826)
        331          7         31 -1.50715972E-03                    1_GWF-(1,26649)  3.54632532E-05                    1_GWF-(1,14801)
        332          7         32 -1.55625905E-03                    1_GWF-(1,24679)  6.58768442E-05                    1_GWF-(1,15107)
        333          7         33 -1.81498820E-03                    1_GWF-(1,24703) -4.78731431E-05                    1_GWF-(1,15107)
        334          7         34 -1.86555077E-03                    1_GWF-(1,24704)  6.38126984E-05                    1_GWF-(1,15107)
        335          7         35 -1.61241762E-03                    1_GWF-(1,24689)  3.45136110E-05                    1_GWF-(1,15939)
        336          7         36 -1.73258074E-03                    1_GWF-(1,21424)  3.41490513E-05                    1_GWF-(1,15107)
        337          7         37 -1.71669299E-03                    1_GWF-(1,21420)  2.54823543E-05                    1_GWF-(1,15939)
        338          7         38 -1.69686462E-03                    1_GWF-(1,24586)  2.61032667E-05                    1_GWF-(1,15107)
        339          7         39 -1.41682495E-03                    1_GWF-(1,24590)  2.42694395E-05                    1_GWF-(1,11459)
        340          7         40 -1.59265477E-03                    1_GWF-(1,26665) -2.92176512E-05                    1_GWF-(1,15107)
        341          7         41 -1.68526465E-03                    1_GWF-(1,26666)  2.26669260E-05                    1_GWF-(1,15107)
        342          7         42 -1.78281938E-03                    1_GWF-(1,26665)  2.78911635E-05                    1_GWF-(1,14801)
        343          7         43 -1.34723183E-03                    1_GWF-(1,26666) -2.73433815E-05                    1_GWF-(1,11459)
        344          7         44 -1.07691070E-03                    1_GWF-(1,26665)  1.79210836E-05                    1_GWF-(1,15107)
        345          7         45  1.38578875E-03                    1_GWF-(1,26218)  2.65561967E-05                    1_GWF-(1,11459)
        346          7         46  1.24115888E-03                    1_GWF-(1,26217)  4.80567254E-05                    1_GWF-(1,15107)
        347          7         47  1.39785200E-03                    1_GWF-(1,26218) -4.42821307E-05                    1_GWF-(1,15107)
        348          7         48 -1.26213116E-03                    1_GWF-(1,26218)  5.68823949E-05                    1_GWF-(1,15107)
        349          7         49  1.24783112E-03                    1_GWF-(1,26218) -3.64412550E-05                    1_GWF-(1,11459)
        350          7         50  1.22829600E-03                    1_GWF-(1,26217)  3.89282188E-05                    1_GWF-(1,15107)
        351          8          1 -5.67848169E-03                    1_GWF-(1,11460) -5.57913463E-05                    1_GWF-(1,11455)
        352          8          2 -3.29840369E-03                    1_GWF-(1,11439)  5.22785040E-05                    1_GWF-(1,15107)
        353          8          3  2.37543238E-03                    1_GWF-(1,11439)  5.84216900E-05                    1_GWF-(1,11455)
        354          8          4  2.27842589E-03                    1_GWF-(1,11460) -3.15712202E-05                    1_GWF-(1,11455)
        355          8          5 -3.84998470E-03                    1_GWF-(1,11439)  1.38359129E-05                    1_GWF-(1,14938)
        356          8          6  3.07884053E-03                    1_GWF-(1,11439)  2.18617249E-05                    1_GWF-(1,11455)
        357          8          7  3.00457277E-03                    1_GWF-(1,11460) -2.05689012E-05                    1_GWF-(1,11455)
        358          8          8 -1.97860161E-03                    1_GWF-(1,11460)  1.52316534E-05                    1_GWF-(1,14801)
        359          8          9  1.89534632E-03                    1_GWF-(1,11380)  2.00971070E-05                    1_GWF-(1,15107)
        360          8         10  2.01430590E-03                    1_GWF-(1,11460) -1.60381985E-05                    1_GWF-(1,15107)
        361          8         11 -1.44435870E-03                    1_GWF-(1,11460)  7.28719519E-06                    1_GWF-(1,14798)
        362          8         12  1.90484479E-03                    1_GWF-(1,11380)  1.60090394E-05                    1_GWF-(1,15107)
        363          8         13  1.97436413E-03                    1_GWF-(1,11460) -1.66850641E-05                    1_GWF-(1,15107)
        364          8         14 -1.87792184E-03                    1_GWF-(1,11460)  2.34380116E-05                    1_GWF-(1,15107)
        365          8         15  1.77229582E-03                    1_GWF-(1,11380) -2.03448304E-05                    1_GWF-(1,15107)
        366          8         16  9.86447991E-04                    1_GWF-(1,11460)  3.14627393E-05                    1_GWF-(1,15107)
        367          8         17 -1.31857829E-03                    1_GWF-(1,11460)  1.43065954E-05                    1_GWF-(1,14799)
        368          8         18  1.01394490E-03                    1_GWF-(1,11380)  1.74783621E-05                    1_GWF-(1,14799)
        369          8         19  9.18977491E-04                    1_GWF-(1,11460)  2.56159848E-05                    1_GWF-(1,15107)
        370          8         20 -1.02718071E-03                    1_GWF-(1,11460) -2.00236363E-05                    1_GWF-(1,15107)
        371          8         21  1.07502464E-03                    1_GWF-(1,11380)  2.26880634E-05                    1_GWF-(1,15107)
        372          8         22  8.55792146E-04                    1_GWF-(1,11460) -2.33194022E-05                    1_GWF-(1,15107)
        373          8         23 -9.54179476E-04                    1_GWF-(1,11460)  2.77484453E-05                    1_GWF-(1,15107)
        374          8         24  8.67591611E-04                    1_GWF-(1,11380)  1.24063493E-05                    1_GWF-(1,14938)
        375          8         25 -7.21545156E-04                    1_GWF-(1,26588)  8.15594701E-06                    1_GWF-(1,14801)
        376          8         26  6.69490187E-04                    1_GWF-(1,26588)  1.58892461E-05                    1_GWF-(1,15107)
        377          8         27  8.32805354E-04                    1_GWF-(1,11380) -1.92794767E-05                    1_GWF-(1,15107)
        378          8         28  6.81023918E-04                    1_GWF-(1,11460)  3.08233730E-05                    1_GWF-(1,15107)
        379          8         29  6.08892074E-04                    1_GWF-(1,26649)  1.59519787E-05                    1_GWF-(1,14938)
        380          8         30  7.04026408E-04                    1_GWF-(1,11380)  8.23961116E-06                    1_GWF-(1,10339)
        381          8         31  6.02696704E-04                    1_GWF-(1,26649)  8.14009972E-06                    1_GWF-(1,14801)
        382          8         32  6.11520839E-04                    1_GWF-(1,26487)  1.07753635E-05                    1_GWF-(1,14799)
        383          8         33 -5.23883556E-04                    1_GWF-(1,26487)  1.25466340E-05                    1_GWF-(1,15107)
        384          8         34 -5.81281120E-04                    1_GWF-(1,26486)  7.23542811E-06                    1_GWF-(1,14800)
        385          8         35 -5.00971074E-04                    1_GWF-(1,26544)  1.06684594E-05                    1_GWF-(1,14801)
        386          8         36 -5.95695953E-04                    1_GWF-(1,26486)  1.21008098E-05                    1_GWF-(1,14798)
        387          8         37 -5.61447182E-04                    1_GWF-(1,26350) -1.14286533E-05                    1_GWF-(1,15107)
        388          8         38 -6.58939622E-04                    1_GWF-(1,26422)  1.87925408E-05                    1_GWF-(1,15107)
        389          8         39 -5.87077343E-04                    1_GWF-(1,26350)  1.49159018E-05                    1_GWF-(1,14938)
        390          8         40 -5.22345902E-04                    1_GWF-(1,26422)  1.13354823E-05                    1_GWF-(1,15107)
        391          8         41 -4.37686144E-04                    1_GWF-(1,26350)  7.12330059E-06                    1_GWF-(1,15109)
        392          8         42 -3.93873533E-04                    1_GWF-(1,20574)  9.41065175E-06                    1_GWF-(1,15107)
        393          8         43  3.81462928E-04                    1_GWF-(1,11460)  8.82391080E-06                    1_GWF-(1,14801)
        394          8         44 -4.98390087E-04                    1_GWF-(1,11460) -9.01755658E-06                    1_GWF-(1,15107)
        395          8         45  3.32373092E-04                    1_GWF-(1,26486)  1.30931509E-05                    1_GWF-(1,15107)
        396          8         46  3.45019206E-04                    1_GWF-(1,26350)  1.36279553E-05                    1_GWF-(1,14799)
        397          8         47 -4.18374615E-04                    1_GWF-(1,11460)  1.63519436E-05                    1_GWF-(1,15107)
        398          8         48  4.40831534E-04                    1_GWF-(1,16237)  1.52599414E-05                    1_GWF-(1,14938)
        399          8         49  4.25801479E-04                    1_GWF-(1,16230)  1.92251754E-05                    1_GWF-(1,15107)
        400          8         50 -4.77753414E-04                    1_GWF-(1,11460) -2.24642771E-05                    1_GWF-(1,15107)
        401          9          1  5.41590443E-04                    1_GWF-(1,11460)  1.84883709E-05                    1_GWF-(1,15107)
        402          9          2 -4.13451501E-04                    1_GWF-(1,16230)  1.30315061E-05                    1_GWF-(1,14938)
        403          9          3 -4.22622074E-04                    1_GWF-(1,16236)  1.07799370E-05                    1_GWF-(1,15107)
        404          9          4  4.34024723E-04                    1_GWF-(1,11460)  1.09228347E-05                    1_GWF-(1,14799)
        405          9          5 -3.36233052E-04                    1_GWF-(1,11460)  8.62546398E-06                    1_GWF-(1,15107)
        406          9          6 -2.80354697E-04                    1_GWF-(1,20228)  5.69467165E-06                    1_GWF-(1,14802)
        407          9          7  3.84892246E-04                    1_GWF-(1,11460)  8.50800632E-06                    1_GWF-(1,14799)
        408          9          8 -2.92512695E-04                    1_GWF-(1,26588)  7.91206096E-06                    1_GWF-(1,15107)
        409          9          9 -3.37726457E-04                    1_GWF-(1,26622)  4.67344220E-06                    1_GWF-(1,14802)
        410          9         10  3.07011552E-04                    1_GWF-(1,11460)  3.48144774E-06                    1_GWF-(1,14823)
        411          9         11  2.72132664E-04                    1_GWF-(1,26623)  6.48234461E-06                    1_GWF-(1,15107)
        412          9         12  2.80644709E-04                    1_GWF-(1,26486)  6.81139396E-06                    1_GWF-(1,14938)
        413          9         13  2.98819174E-04                    1_GWF-(1,11460)  9.26560927E-06                    1_GWF-(1,15107)
        414          9         14  2.93913842E-04                    1_GWF-(1,26422)  8.23843195E-06                    1_GWF-(1,14938)
        415          9         15  2.68168332E-04                    1_GWF-(1,26350)  1.11056454E-05                    1_GWF-(1,15107)
        416          9         16  2.72628913E-04                    1_GWF-(1,26422) -6.93959120E-06                    1_GWF-(1,15107)
        417          9         17  2.56168559E-04                    1_GWF-(1,26350)  5.47023127E-06                    1_GWF-(1,14801)
        418          9         18  2.42385011E-04                    1_GWF-(1,26422)  4.91618374E-06                    1_GWF-(1,14798)
        419          9         19 -2.07345573E-04                     1_GWF-(1,8023) -6.09835057E-06                    1_GWF-(1,15107)
        420          9         20 -2.70783768E-04                    1_GWF-(1,26649)  7.21263969E-06                    1_GWF-(1,15107)
        421          9         21 -2.78081721E-04                    1_GWF-(1,26622)  7.19104542E-06                    1_GWF-(1,14938)
        422          9         22 -3.18295071E-04                    1_GWF-(1,26649)  6.19437118E-06                    1_GWF-(1,15107)
        423          9         23 -2.71101879E-04                    1_GWF-(1,26622)  3.92587885E-06                    1_GWF-(1,15107)
        424          9         24 -2.66470366E-04                    1_GWF-(1,26486) -5.98293264E-06                    1_GWF-(1,15107)
        425          9         25  2.23061841E-04                    1_GWF-(1,11460)  8.51901457E-06                    1_GWF-(1,15107)
        426          9         26  2.19715919E-04                     1_GWF-(1,8339) -5.38909212E-06                    1_GWF-(1,15107)
        427          9         27 -1.94311636E-04                    1_GWF-(1,26487)  5.49242437E-06                    1_GWF-(1,15107)
        428          9         28  2.19583635E-04                    1_GWF-(1,11460)  5.56135457E-06                    1_GWF-(1,14798)
        429          9         29  2.11719341E-04                    1_GWF-(1,26420) -5.59184955E-06                    1_GWF-(1,15107)
        430          9         30 -2.23279944E-04                    1_GWF-(1,11460)  6.13337569E-06                    1_GWF-(1,15107)
        431          9         31  2.60652999E-04                    1_GWF-(1,11460)  5.33924150E-06                    1_GWF-(1,14938)
        432          9         32 -1.90444134E-04                    1_GWF-(1,24673)  6.25547071E-06                    1_GWF-(1,15107)
        433          9         33 -2.15692675E-04                    1_GWF-(1,26665)  3.61016172E-06                    1_GWF-(1,14796)
        434          9         34  2.43077901E-04                    1_GWF-(1,26665)  3.76515263E-06                    1_GWF-(1,14801)
        435          9         35 -2.26700329E-04                    1_GWF-(1,26665)  7.33368706E-06                    1_GWF-(1,15107)
        436          9         36 -2.41672208E-04                    1_GWF-(1,11460) -5.76744071E-06                    1_GWF-(1,15107)
        437          9         37  3.25231301E-04                    1_GWF-(1,11460)  6.44873580E-06                    1_GWF-(1,15107)
        438          9         38 -2.07267383E-04                    1_GWF-(1,24586)  4.65293309E-06                    1_GWF-(1,15939)
        439          9         39 -1.81101110E-04                    1_GWF-(1,24586)  5.58076113E-06                    1_GWF-(1,15107)
        440          9         40  2.93228680E-04                    1_GWF-(1,11460) -4.65537942E-06                    1_GWF-(1,15107)
        441          9         41 -2.87258522E-04                    1_GWF-(1,11460)  3.30888771E-06                    1_GWF-(1,14799)
        442          9         42 -2.52890833E-04                    1_GWF-(1,11439)  2.58109462E-06                    1_GWF-(1,14802)
        443          9         43 -1.75696806E-04                     1_GWF-(1,8444)  2.47300690E-06                    1_GWF-(1,14801)
        444          9         44 -2.23791052E-04                    1_GWF-(1,11460)  3.73129356E-06                    1_GWF-(1,15107)
        445          9         45 -3.41351233E-04                    1_GWF-(1,11439)  3.14068418E-06                    1_GWF-(1,14938)
        446          9         46  3.91551295E-04                    1_GWF-(1,11439)  5.83370944E-06                    1_GWF-(1,15107)
        447          9         47  2.16435874E-04                    1_GWF-(1,15167) -5.89173184E-06                    1_GWF-(1,15107)
        448          9         48 -2.06849535E-04                    1_GWF-(1,11460)  6.94039346E-06                    1_GWF-(1,15107)
        449          9         49  1.97236461E-04                    1_GWF-(1,11439)  2.65622201E-06                    1_GWF-(1,14938)
        450          9         50  3.34931927E-04                    1_GWF-(1,11460)  3.85201222E-06                    1_GWF-(1,11455)
        451         10          1 -2.76827047E-04                    1_GWF-(1,11460)  1.98239100E-06                    1_GWF-(1,14799)
        452         10          2 -1.63218428E-04                    1_GWF-(1,26588) -2.76588270E-06                    1_GWF-(1,11455)
        453         10          3  2.45689616E-04                    1_GWF-(1,11460)  3.30118347E-06                    1_GWF-(1,11455)
        454         10          4  2.68779795E-04                    1_GWF-(1,11439)  2.47859452E-06                    1_GWF-(1,14799)
        455         10          5 -3.07112542E-04                    1_GWF-(1,11439)  3.12019151E-06                    1_GWF-(1,15107)
        456         10          6 -1.30632981E-04                    1_GWF-(1,26217)  2.59233646E-06                    1_GWF-(1,15939)
        457         10          7  1.39558817E-04                    1_GWF-(1,11439)  2.52461276E-06                    1_GWF-(1,15107)
        458         10          8 -1.92166883E-04                    1_GWF-(1,11439)  1.98854786E-06                    1_GWF-(1,14938)
        459         10          9 -1.61371014E-04                    1_GWF-(1,11460)  1.87733902E-06                    1_GWF-(1,11455)
        460         10         10  1.39865797E-04                    1_GWF-(1,11460)  2.03945122E-06                    1_GWF-(1,14801)
        461         10         11  1.11258866E-04                    1_GWF-(1,24349)  1.18824255E-06                    1_GWF-(1,14796)
        462         10         12  1.13094370E-04                    1_GWF-(1,24319)  1.31953564E-06                    1_GWF-(1,15107)
[...]
        567         12         17  1.29396664E-05                    1_GWF-(1,26588)  2.50979125E-07                    1_GWF-(1,15107)
        568         12         18  1.11444520E-05                    1_GWF-(1,24703)  2.90265335E-07                    1_GWF-(1,14796)
        569         12         19  1.06085977E-05                    1_GWF-(1,25050)  3.33163428E-07                    1_GWF-(1,15107)
        570         12         20  9.60468641E-06                    1_GWF-(1,24748)  2.65809590E-07                    1_GWF-(1,14801)
        571         12         21 -1.07867260E-05                    1_GWF-(1,26665)  1.95193972E-07                    1_GWF-(1,14802)
        572         12         22  1.04961437E-05                    1_GWF-(1,26665)  1.97011332E-07                    1_GWF-(1,14799)
        573         12         23 -8.49499988E-06                    1_GWF-(1,26665)  2.69095412E-07                    1_GWF-(1,14801)
        574         12         24 -9.20986186E-06                     1_GWF-(1,8474)  3.44472604E-07                    1_GWF-(1,15107)
        575         12         25 -1.07629174E-05                     1_GWF-(1,8339) -1.59411461E-07                    1_GWF-(1,15107)
        576         12         26  9.90283364E-06                    1_GWF-(1,26420)  1.90148285E-07                    1_GWF-(1,14801)
        577         12         27  9.03315323E-06                    1_GWF-(1,26487)  1.52662691E-07                    1_GWF-(1,15107)
        578         12         28 -9.86955415E-06                    1_GWF-(1,11380)  2.03259226E-07                    1_GWF-(1,15939)
        579         12         29  8.53826784E-06                    1_GWF-(1,26589)  3.20301370E-07                    1_GWF-(1,15107)
        580         12         30  6.03744947E-06                    1_GWF-(1,26588) -2.21420416E-07                    1_GWF-(1,15107)
        581         12         31 -1.07794433E-05                    1_GWF-(1,11380)  2.12830678E-07                    1_GWF-(1,15107)
        582         12         32  8.07217792E-06                    1_GWF-(1,11380) -2.16743752E-07                    1_GWF-(1,15107)
        583         12         33 -7.44807601E-06                    1_GWF-(1,15167)  2.08692759E-07                    1_GWF-(1,15107)
        584         12         34 -8.25606479E-06                    1_GWF-(1,11380) -1.21376297E-07                    1_GWF-(1,11455)
        585         12         35 -9.70948392E-06                    1_GWF-(1,26588)  1.35541169E-07                    1_GWF-(1,14799)
        586         12         36 -9.08043685E-06                    1_GWF-(1,26589)  1.83312074E-07                    1_GWF-(1,14801)
        587         12         37 -9.19458603E-06                    1_GWF-(1,26623)  1.36088403E-07                    1_GWF-(1,14823)
        588         12         38 -9.69093032E-06                    1_GWF-(1,26486)  1.15025602E-07                    1_GWF-(1,14802)
        589         12         39 -8.18268217E-06                    1_GWF-(1,26350)  1.75114475E-07                    1_GWF-(1,11455)
        590         12         40 -9.39300728E-06                    1_GWF-(1,26422)  1.12420511E-07                    1_GWF-(1,14938)
        591         12         41 -9.03442710E-06                    1_GWF-(1,26350)  1.34868756E-07                    1_GWF-(1,15107)
        592         12         42 -7.28999152E-06                    1_GWF-(1,26422)  1.53467547E-07                    1_GWF-(1,11455)
        593         12         43 -7.31780154E-06                    1_GWF-(1,11380)  1.63027168E-07                    1_GWF-(1,15107)
        594         12         44  5.88345092E-06                    1_GWF-(1,11380)  8.36145451E-08                    1_GWF-(1,14802)
        595         12         45  5.45899074E-06                    1_GWF-(1,26421)  1.62329632E-07                    1_GWF-(1,11455)
        596         12         46 -6.74532894E-06                    1_GWF-(1,11380) -1.43143134E-07                    1_GWF-(1,11455)
        597         12         47  7.26583149E-06                    1_GWF-(1,11380)  1.55782690E-07                    1_GWF-(1,14799)
        598         12         48  6.33772433E-06                    1_GWF-(1,16239)  2.09861302E-07                    1_GWF-(1,15107)
        599         12         49  6.40256981E-06                    1_GWF-(1,16233)  1.83893242E-07                    1_GWF-(1,14938)
        600         12         50  6.41702490E-06                    1_GWF-(1,11380) -1.06537747E-07                    1_GWF-(1,14938)
        601         13          1 -7.00181652E-06                    1_GWF-(1,26649)  1.16350824E-07                    1_GWF-(1,14938)
        602         13          2 -7.67874109E-06                    1_GWF-(1,26487)  9.85541845E-08                    1_GWF-(1,15107)
        603         13          3 -6.50193172E-06                    1_GWF-(1,26486)  1.01068135E-07                    1_GWF-(1,14801)
        604         13          4 -6.49603541E-06                    1_GWF-(1,11380) -1.38780570E-07                    1_GWF-(1,15107)
        605         13          5 -5.15287894E-06                    1_GWF-(1,20572)  2.03070259E-07                    1_GWF-(1,15107)
        606         13          6  5.70373687E-06                    1_GWF-(1,11380) -1.36818089E-07                    1_GWF-(1,15107)
        607         13          7 -6.73839230E-06                    1_GWF-(1,11380)  1.11199648E-07                    1_GWF-(1,14801)
        608         13          8 -3.81287080E-06                    1_GWF-(1,26663)  1.15499238E-07                    1_GWF-(1,14799)
        609         13          9  4.00652061E-06                    1_GWF-(1,11380)  6.58448817E-08                    1_GWF-(1,14826)
        610         13         10 -5.81788814E-06                    1_GWF-(1,11380)  8.54645376E-08                    1_GWF-(1,15107)
        611         13         11 -6.44052518E-06                    1_GWF-(1,26665)  9.07184911E-08                    1_GWF-(1,14799)
        612         13         12  5.69127098E-06                    1_GWF-(1,26665)  6.15623088E-08                    1_GWF-(1,14850)
        613         13         13  5.55621336E-06                    1_GWF-(1,26588)  7.34379704E-08                    1_GWF-(1,14802)
        614         13         14  5.50344341E-06                    1_GWF-(1,26589)  9.57218422E-08                    1_GWF-(1,14801)
        615         13         15  7.45368416E-06                    1_GWF-(1,26588)  1.16357217E-07                    1_GWF-(1,15107)
        616         13         16  6.09401464E-06                    1_GWF-(1,26543)  8.02833735E-08                    1_GWF-(1,14796)
        617         13         17  4.38396249E-06                    1_GWF-(1,26588)  7.58989320E-08                    1_GWF-(1,14801)
        618         13         18  4.63114949E-06                    1_GWF-(1,11380)  1.10967144E-07                    1_GWF-(1,15107)
        619         13         19 -3.51804341E-06                    1_GWF-(1,26486) -1.10390677E-07                    1_GWF-(1,15107)
        620         13         20 -4.55173204E-06                    1_GWF-(1,26649) -5.99119111E-08                    1_GWF-(1,14938)
        621         13         21 -4.44974929E-06                    1_GWF-(1,26622)  6.56361035E-08                    1_GWF-(1,14801)
        622         13         22 -4.41829094E-06                    1_GWF-(1,26487)  1.01726511E-07                    1_GWF-(1,14938)
        623         13         23 -4.35738799E-06                    1_GWF-(1,26420)  1.31579489E-07                    1_GWF-(1,15107)
        624         13         24  4.38698122E-06                    1_GWF-(1,11380) -9.17779044E-08                    1_GWF-(1,15107)
        625         13         25 -4.05475399E-06                    1_GWF-(1,26350)  9.74461063E-08                    1_GWF-(1,15107)
        626         13         26 -4.21745710E-06                    1_GWF-(1,26422)  5.28531942E-08                    1_GWF-(1,15022)
        627         13         27 -3.58556225E-06                    1_GWF-(1,26350)  5.65589970E-08                    1_GWF-(1,14823)
        628         13         28 -3.51061476E-06                    1_GWF-(1,26422)  9.27577839E-08                    1_GWF-(1,14801)
        629         13         29 -2.89781432E-06                    1_GWF-(1,24429)  7.44192266E-08                    1_GWF-(1,14799)
        630         13         30 -3.04760790E-06                    1_GWF-(1,24961)  6.65383812E-08                    1_GWF-(1,15107)
        631         13         31  3.25279581E-06                    1_GWF-(1,26487)  8.85126350E-08                    1_GWF-(1,14801)
        632         13         32  3.99440307E-06                    1_GWF-(1,26486)  8.03851834E-08                    1_GWF-(1,14799)
        633         13         33 -3.14078275E-06                    1_GWF-(1,24673)  1.04454733E-07                    1_GWF-(1,15107)
        634         13         34 -3.31825795E-06                    1_GWF-(1,24703)  8.37385728E-08                    1_GWF-(1,15022)
        635         13         35 -3.25821303E-06                    1_GWF-(1,24688)  1.51500992E-07                    1_GWF-(1,15107)
        636         13         36  3.07817181E-06                    1_GWF-(1,11380) -1.18666634E-07                    1_GWF-(1,15107)
        637         13         37 -2.96506047E-06                    1_GWF-(1,21421)  1.50434301E-07                    1_GWF-(1,15107)
        638         13         38 -3.11646954E-06                    1_GWF-(1,24313) -1.34795562E-07                    1_GWF-(1,15107)
        639         13         39 -2.68280919E-06                    1_GWF-(1,24587)  1.40791958E-07                    1_GWF-(1,15107)
        640         13         40 -3.01538586E-06                    1_GWF-(1,11380) -9.53743083E-08                    1_GWF-(1,15107)
        641         13         41 -2.93614861E-06                    1_GWF-(1,26588)  7.16028143E-08                    1_GWF-(1,14801)
        642         13         42 -3.19556842E-06                    1_GWF-(1,26486)  6.95590554E-08                    1_GWF-(1,15107)
        643         13         43  2.55722954E-06                    1_GWF-(1,11460)  7.67544310E-08                    1_GWF-(1,14938)
        644         13         44 -3.21354779E-06                    1_GWF-(1,11460)  8.25129061E-08                    1_GWF-(1,15107)
        645         13         45  2.66988571E-06                    1_GWF-(1,11380)  5.74210867E-08                    1_GWF-(1,15939)
        646         13         46 -2.86100502E-06                    1_GWF-(1,11380)  6.14960045E-08                    1_GWF-(1,14825)
        647         13         47  4.25256698E-06                    1_GWF-(1,11439)  7.91486527E-08                    1_GWF-(1,14801)
        648         13         48 -3.84417731E-06                    1_GWF-(1,11439)  6.59538578E-08                    1_GWF-(1,14801)
        649         13         49  3.11303061E-06                    1_GWF-(1,26588)  6.18829434E-08                    1_GWF-(1,15107)
        650         13         50  3.02073502E-06                    1_GWF-(1,11439)  3.30588493E-08                    1_GWF-(1,14799)
        651         14          1  2.99516741E-06                    1_GWF-(1,11460)  4.07730079E-08                    1_GWF-(1,14801)
        652         14          2 -3.41769827E-06                    1_GWF-(1,26588)  5.43221477E-08                    1_GWF-(1,14801)
        653         14          3 -4.97538715E-06                    1_GWF-(1,11460) -6.65194799E-08                    1_GWF-(1,11455)
        654         14          4  5.36306330E-06                    1_GWF-(1,11460)  3.41904934E-08                    1_GWF-(1,15107)
        655         14          5  1.82688389E-06                    1_GWF-(1,21687)  5.92389592E-08                    1_GWF-(1,11455)
        656         14          6 -3.31986681E-06                    1_GWF-(1,11460)  6.07584364E-08                    1_GWF-(1,15107)
        657         14          7  3.39942176E-06                    1_GWF-(1,11460)  3.61706982E-08                    1_GWF-(1,14938)
        658         14          8  2.40416429E-06                    1_GWF-(1,11439)  4.96509009E-08                    1_GWF-(1,11455)
        659         14          9  2.26167008E-06                    1_GWF-(1,26622)  2.98311669E-08                    1_GWF-(1,14826)
        660         14         10 -2.52527794E-06                    1_GWF-(1,11439)  4.79929773E-08                    1_GWF-(1,15939)
        661         14         11  3.07319000E-06                    1_GWF-(1,11439)  4.33394279E-08                    1_GWF-(1,11455)
        662         14         12  1.85157142E-06                    1_GWF-(1,21430)  3.14522682E-08                    1_GWF-(1,15939)
        663         14         13  1.93749633E-06                    1_GWF-(1,24313)  2.94268539E-08                    1_GWF-(1,14823)
        664         14         14  1.92312497E-06                    1_GWF-(1,11439)  3.30143945E-08                    1_GWF-(1,11455)
        665         14         15  1.64375530E-06                    1_GWF-(1,26420)  2.92171244E-08                    1_GWF-(1,14801)
        666         14         16  1.61514468E-06                    1_GWF-(1,26487)  3.36624615E-08                    1_GWF-(1,15107)
        667         14         17  1.55782337E-06                    1_GWF-(1,24687)  3.58967894E-08                    1_GWF-(1,14802)
        668         14         18  1.34022924E-06                    1_GWF-(1,24703)  4.30779240E-08                    1_GWF-(1,14801)
        669         14         19  1.35287575E-06                    1_GWF-(1,24755)  3.57567185E-08                    1_GWF-(1,14799)
        670         14         20  1.37189809E-06                    1_GWF-(1,26665)  3.59517921E-08                    1_GWF-(1,14802)
        671         14         21  1.15874789E-06                    1_GWF-(1,24961)  3.07327124E-08                    1_GWF-(1,14801)
        672         14         22  1.11887691E-06                    1_GWF-(1,24988)  3.63508387E-08                    1_GWF-(1,14799)
        673         14         23 -1.06678785E-06                     1_GWF-(1,8371)  2.97541096E-08                    1_GWF-(1,11455)
        674         14         24 -1.21684581E-06                     1_GWF-(1,8474)  2.54550904E-08                    1_GWF-(1,15107)
        675         14         25 -1.36376444E-06                     1_GWF-(1,8444)  2.33843539E-08                    1_GWF-(1,14801)
        676         14         26 -1.20029280E-06                     1_GWF-(1,8333)  3.28132311E-08                    1_GWF-(1,11455)
        677         14         27  1.07403322E-06                    1_GWF-(1,26487)  2.18874198E-08                    1_GWF-(1,10342)
        678         14         28  1.61043241E-06                    1_GWF-(1,26486)  2.09255256E-08                    1_GWF-(1,15107)
        679         14         29  1.57867662E-06                    1_GWF-(1,26487)  2.76595170E-08                    1_GWF-(1,11455)
        680         14         30  1.23622937E-06                    1_GWF-(1,26486)  2.10096283E-08                    1_GWF-(1,14802)
        681         14         31  1.00740642E-06                    1_GWF-(1,26422) -2.45521994E-08                    1_GWF-(1,11455)
        682         14         32 -9.97690987E-07                    1_GWF-(1,26422)  2.44762386E-08                    1_GWF-(1,11455)
        683         15          1  8.50153223E-07                    1_GWF-(1,26588)  1.93326619E-08                    1_GWF-(1,14801)
 --------------------------------------------------------------------------------------------------------------------------------------


 UBDSV1 SAVING     FLOW-JA-FACE ON UNIT   1020 AT TIME STEP      1, STRESS PERIOD      1
 UBDSV06 SAVING       DATA-SPDIS IN MODEL ML               PACKAGE NPF             CONNECTED TO MODEL ML               PACKAGE NPF              ON UNIT   1020 AT TIME STEP      1, STRESS PERIOD      1
 UBDSV06 SAVING              WEL IN MODEL ML               PACKAGE ML              CONNECTED TO MODEL ML               PACKAGE WEL_0            ON UNIT   1020 AT TIME STEP      1, STRESS PERIOD      1
 UBDSV06 SAVING              DRN IN MODEL ML               PACKAGE ML              CONNECTED TO MODEL ML               PACKAGE DRN_0            ON UNIT   1020 AT TIME STEP      1, STRESS PERIOD      1
 UBDSV06 SAVING              RIV IN MODEL ML               PACKAGE ML              CONNECTED TO MODEL ML               PACKAGE RIV_0            ON UNIT   1020 AT TIME STEP      1, STRESS PERIOD      1
 UBDSV06 SAVING              GHB IN MODEL ML               PACKAGE ML              CONNECTED TO MODEL ML               PACKAGE GHB_0            ON UNIT   1020 AT TIME STEP      1, STRESS PERIOD      1
 UBDSV06 SAVING              RCH IN MODEL ML               PACKAGE ML              CONNECTED TO MODEL ML               PACKAGE RCHA_0           ON UNIT   1020 AT TIME STEP      1, STRESS PERIOD      1

 HEAD WILL BE SAVED ON UNIT 1021 AT END OF TIME STEP    1, STRESS PERIOD    1


  VOLUME BUDGET FOR ENTIRE MODEL AT END OF TIME STEP    1, STRESS PERIOD   1
  ---------------------------------------------------------------------------------------------------

     CUMULATIVE VOLUME      L**3       RATES FOR THIS TIME STEP      L**3/T          PACKAGE NAME    
     ------------------                 ------------------------                     ----------------

           IN:                                      IN:
           ---                                      ---
                 WEL =           0.0000                   WEL =           0.0000     WEL_0           
                 DRN =           0.0000                   DRN =           0.0000     DRN_0           
                 RIV =           7.9885                   RIV =           0.9986     RIV_0           
                 GHB =          22.0989                   GHB =           2.7624     GHB_0           
                 RCH =           2.1017                   RCH =           0.2627     RCHA_0          

            TOTAL IN =          32.1891              TOTAL IN =           4.0236

          OUT:                                     OUT:
          ----                                     ----
                 WEL =           1.3838                   WEL =           0.1730     WEL_0           
                 DRN =           1.5291                   DRN =           0.1911     DRN_0           
                 RIV =          29.2354                   RIV =           3.6544     RIV_0           
                 GHB =       4.0836E-02                   GHB =       5.1044E-03     GHB_0           
                 RCH =           0.0000                   RCH =           0.0000     RCHA_0          

           TOTAL OUT =          32.1891             TOTAL OUT =           4.0236

            IN - OUT =      -1.9973E-05              IN - OUT =      -2.4967E-06

 PERCENT DISCREPANCY =          -0.00     PERCENT DISCREPANCY =          -0.00




         TIME SUMMARY AT END OF TIME STEP    1 IN STRESS PERIOD    1
                    SECONDS     MINUTES      HOURS       DAYS        YEARS
                    -----------------------------------------------------------
   TIME STEP LENGTH  8.0000     0.13333     2.22222E-03 9.25926E-05 2.53505E-07
 STRESS PERIOD TIME  8.0000     0.13333     2.22222E-03 9.25926E-05 2.53505E-07
         TOTAL TIME  8.0000     0.13333     2.22222E-03 9.25926E-05 2.53505E-07


end timestep

