                                   MODFLOW 6
                U.S. GEOLOGICAL SURVEY MODULAR HYDROLOGIC MODEL
                          GROUNDWATER FLOW MODEL (GWF)
                            VERSION 6.2.2 07/30/2021

   MODFLOW 6 compiled Jul 31 2021 14:22:53 with IFORT compiler (ver. 19.10.3)

This software has been approved for release by the U.S. Geological 
Survey (USGS). Although the software has been subjected to rigorous 
review, the USGS reserves the right to update the software as needed 
pursuant to further analysis and review. No warranty, expressed or 
implied, is made by the USGS or the U.S. Government as to the 
functionality of the software and related material nor shall the 
fact of release constitute any such warranty. Furthermore, the 
software is released on condition that neither the USGS nor the U.S. 
Government shall be held liable for any damages resulting from its 
authorized or unauthorized use. Also refer to the USGS Water 
Resources Software User Rights Notice for complete use, copyright, 
and distribution information.


System command used to initiate simulation:
mf6

MODFLOW was compiled using uniform precision.

Real Variables
  KIND: 8
  TINY (smallest non-zero value):    2.225074-308
  HUGE (largest value):    1.797693+308
  PRECISION: 15
  BIT SIZE: 64

Integer Variables
  KIND: 4
  HUGE (largest value): 2147483647
  BIT SIZE: 32

Long Integer Variables
  KIND: 8
  HUGE (largest value): 9223372036854775807
  BIT SIZE: 64

Logical Variables
  KIND: 4
  BIT SIZE: 32
 

 OPENED ./ml.disv
 FILE TYPE:DISV6                  UNIT 1005   STATUS:OLD                 
 FORMAT:FORMATTED              ACCESS:SEQUENTIAL          
 ACTION:READ                


 OPENED ./ml.ic
 FILE TYPE:IC6                    UNIT 1006   STATUS:OLD                 
 FORMAT:FORMATTED              ACCESS:SEQUENTIAL          
 ACTION:READ                


 OPENED ./ml.npf
 FILE TYPE:NPF6                   UNIT 1007   STATUS:OLD                 
 FORMAT:FORMATTED              ACCESS:SEQUENTIAL          
 ACTION:READ                


 OPENED ./ml.ghb
 FILE TYPE:GHB6                   UNIT 1008   STATUS:OLD                 
 FORMAT:FORMATTED              ACCESS:SEQUENTIAL          
 ACTION:READ                


 OPENED ./ml.rcha
 FILE TYPE:RCH6                   UNIT 1009   STATUS:OLD                 
 FORMAT:FORMATTED              ACCESS:SEQUENTIAL          
 ACTION:READ                


 OPENED ./ml.obs
 FILE TYPE:OBS6                   UNIT 1010   STATUS:OLD                 
 FORMAT:FORMATTED              ACCESS:SEQUENTIAL          
 ACTION:READ                


 OPENED ./ml.oc
 FILE TYPE:OC6                    UNIT 1011   STATUS:OLD                 
 FORMAT:FORMATTED              ACCESS:SEQUENTIAL          
 ACTION:READ                


 OPENED ml.wel
 FILE TYPE:WEL6                   UNIT 1012   STATUS:OLD                 
 FORMAT:FORMATTED              ACCESS:SEQUENTIAL          
 ACTION:READ                


 OPENED ml.drn
 FILE TYPE:DRN6                   UNIT 1013   STATUS:OLD                 
 FORMAT:FORMATTED              ACCESS:SEQUENTIAL          
 ACTION:READ                


 OPENED ml.riv
 FILE TYPE:RIV6                   UNIT 1014   STATUS:OLD                 
 FORMAT:FORMATTED              ACCESS:SEQUENTIAL          
 ACTION:READ                


 DISV -- VERTEX GRID DISCRETIZATION PACKAGE, VERSION 1 : 12/23/2015 - INPUT READ FROM UNIT 1005


 # File generated by Flopy version 3.3.5 on 06/01/2022 at 18:12:17.

 PROCESSING DISCRETIZATION OPTIONS
    MODEL LENGTH UNIT IS METERS
    XORIGIN SPECIFIED AS     405575.681000000    
    YORIGIN SPECIFIED AS     6423306.54000000    
 END OF DISCRETIZATION OPTIONS

 PROCESSING DISCRETIZATION DIMENSIONS
   NLAY = 1
   NCPL = 26674
   NVERT = 27090
 END OF DISCRETIZATION DIMENSIONS

 PROCESSING GRIDDATA
 END PROCESSING GRIDDATA

 PROCESSING VERTICES
   SUCCESSFULLY READ 27090 (X,Y) COORDINATES
   MINIMUM X COORDINATE =     405575.681000000    
   MAXIMUM X COORDINATE =     413975.681000000    
   MINIMUM Y COORDINATE =     6423306.54000000    
   MAXIMUM Y COORDINATE =     6432506.54000000    
 END PROCESSING VERTICES

 PROCESSING CELL2D
   SUCCESSFULLY READ 26674 CELL2D INFORMATION ENTRIES
   MINIMUM X CELL CENTER =     405675.681000000    
   MAXIMUM X CELL CENTER =     413875.681000000    
   MINIMUM Y CELL CENTER =     6423406.54000000    
   MAXIMUM Y CELL CENTER =     6432406.54000000    
   MAXIMUM NUMBER OF CELL2D VERTICES IS 6 FOR CELL 208
 END PROCESSING VERTICES

 NPF -- NODE PROPERTY FLOW PACKAGE, VERSION 1, 3/30/2015 INPUT READ FROM UNIT 1007


 # File generated by Flopy version 3.3.5 on 06/01/2022 at 18:12:20.
 PROCESSING NPF OPTIONS
    CELL-BY-CELL FLOW INFORMATION WILL BE SAVED TO BINARY FILE WHENEVER ICBCFL IS NOT ZERO.
    SPECIFIC DISCHARGE WILL BE CALCULATED AT CELL CENTERS AND WRITTEN TO DATA-SPDIS IN BUDGET FILE WHEN REQUESTED.
 END OF NPF OPTIONS

 WEL   -- WEL PACKAGE, VERSION 8, 2/22/2014 INPUT READ FROM UNIT 1012
 # File generated by Flopy version 3.3.5 on 06/01/2022 at 18:12:20.

 PROCESSING WEL OPTIONS
    WEL BOUNDARIES HAVE NAMES IN LAST COLUMN.
    FLOWS WILL BE SAVED TO BUDGET FILE SPECIFIED IN OUTPUT CONTROL
 END OF WEL OPTIONS

 PROCESSING WEL DIMENSIONS
    MAXBOUND =       9
 END OF WEL DIMENSIONS

 DRN   -- DRN PACKAGE, VERSION 8, 2/22/2014 INPUT READ FROM UNIT 1013
 # File generated by Flopy version 3.3.5 on 06/01/2022 at 18:12:20.

 PROCESSING DRN OPTIONS
    DRN BOUNDARIES HAVE NAMES IN LAST COLUMN.
    FLOWS WILL BE SAVED TO BUDGET FILE SPECIFIED IN OUTPUT CONTROL

 OPENED ml.drn.obs
 FILE TYPE:OBS   UNIT 1016   STATUS:OLD                 
 FORMAT:FORMATTED              ACCESS:SEQUENTIAL          
 ACTION:READ                

 END OF DRN OPTIONS

 PROCESSING DRN DIMENSIONS
    MAXBOUND =     133
 END OF DRN DIMENSIONS

 RIV   -- RIV PACKAGE, VERSION 8, 2/22/2014 INPUT READ FROM UNIT 1014
 # File generated by Flopy version 3.3.5 on 06/01/2022 at 18:12:20.

 PROCESSING RIV OPTIONS
    AUXILIARY RIV VARIABLE: FID             
    RIV BOUNDARIES HAVE NAMES IN LAST COLUMN.
    FLOWS WILL BE SAVED TO BUDGET FILE SPECIFIED IN OUTPUT CONTROL
 END OF RIV OPTIONS

 PROCESSING RIV DIMENSIONS
    MAXBOUND =     794
 END OF RIV DIMENSIONS

 GHB   -- GHB PACKAGE, VERSION 8, 2/22/2014 INPUT READ FROM UNIT 1008
 # File generated by Flopy version 3.3.5 on 06/01/2022 at 18:12:20.

 PROCESSING GHB OPTIONS
    GHB BOUNDARIES HAVE NAMES IN LAST COLUMN.
    FLOWS WILL BE SAVED TO BUDGET FILE SPECIFIED IN OUTPUT CONTROL
 END OF GHB OPTIONS

 PROCESSING GHB DIMENSIONS
    MAXBOUND =     153
 END OF GHB DIMENSIONS

 RCH   -- RCH PACKAGE, VERSION 8, 2/22/2014 INPUT READ FROM UNIT 1009
 # File generated by Flopy version 3.3.5 on 06/01/2022 at 18:12:20.

 PROCESSING RCH OPTIONS
    RECHARGE INPUT WILL BE READ AS ARRAY(S).
    FLOWS WILL BE SAVED TO BUDGET FILE SPECIFIED IN OUTPUT CONTROL
 END OF RCH OPTIONS

 IC -- INITIAL CONDITIONS PACKAGE, VERSION 8, 3/28/2015 INPUT READ FROM UNIT 1006
 # File generated by Flopy version 3.3.5 on 06/01/2022 at 18:12:20.
 PROCESSING GRIDDATA

     INITIAL HEAD =   15.00000    
 END PROCESSING GRIDDATA
 PROCESSING GRIDDATA

                ICELLTYPE = 0

 OPENED ../com_ext/k.txt
 FILE TYPE:OPEN/CLOSE   UNIT 1017   STATUS:OLD                 
 FORMAT:FORMATTED              ACCESS:SEQUENTIAL          
 ACTION:READ                

 K33 not provided.  Assuming K33 = K.
 K22 not provided.  Assuming K22 = K.
 END PROCESSING GRIDDATA

The observation utility is active for "ML"
 # File generated by Flopy version 3.3.5 on 06/01/2022 at 18:12:20.

Processing observation options:

Text output number of digits of precision set to: 10
The PRINT_INPUT option has been specified.


 OBSERVATIONS READ FROM FILE "ml.obs"
 ----------------------------------------------------------------------------------------------------------------------------------------------------------------------------------------------------------------------------
 NAME                                     TYPE                                       TIME         LOCATION DATA                              OUTPUT FILENAME                                                                 
 ----------------------------------------------------------------------------------------------------------------------------------------------------------------------------------------------------------------------------
 PRG                                      CONTINUOUS  HEAD                           ALL TIMES    "1 16523"                                  sim/hds.csv                                                                     
 P8                                       CONTINUOUS  HEAD                           ALL TIMES    "1 10323"                                  sim/hds.csv                                                                     
 P24                                      CONTINUOUS  HEAD                           ALL TIMES    "1 9594"                                   sim/hds.csv                                                                     
 P25                                      CONTINUOUS  HEAD                           ALL TIMES    "1 13966"                                  sim/hds.csv                                                                     
 P32                                      CONTINUOUS  HEAD                           ALL TIMES    "1 15787"                                  sim/hds.csv                                                                     
 P33                                      CONTINUOUS  HEAD                           ALL TIMES    "1 15825"                                  sim/hds.csv                                                                     
 PF                                       CONTINUOUS  HEAD                           ALL TIMES    "1 21048"                                  sim/hds.csv                                                                     
 PH                                       CONTINUOUS  HEAD                           ALL TIMES    "1 20781"                                  sim/hds.csv                                                                     
 PZHM1                                    CONTINUOUS  HEAD                           ALL TIMES    "1 14521"                                  sim/hds.csv                                                                     
 P26                                      CONTINUOUS  HEAD                           ALL TIMES    "1 13141"                                  sim/hds.csv                                                                     
 P27                                      CONTINUOUS  HEAD                           ALL TIMES    "1 8465"                                   sim/hds.csv                                                                     
 P28                                      CONTINUOUS  HEAD                           ALL TIMES    "1 8924"                                   sim/hds.csv                                                                     
 P29                                      CONTINUOUS  HEAD                           ALL TIMES    "1 4524"                                   sim/hds.csv                                                                     
 P30                                      CONTINUOUS  HEAD                           ALL TIMES    "1 5255"                                   sim/hds.csv                                                                     
 R20                                      CONTINUOUS  HEAD                           ALL TIMES    "1 10676"                                  sim/hds.csv                                                                     
 R21                                      CONTINUOUS  HEAD                           ALL TIMES    "1 10403"                                  sim/hds.csv                                                                     
 P34                                      CONTINUOUS  HEAD                           ALL TIMES    "1 15131"                                  sim/hds.csv                                                                     
 P37                                      CONTINUOUS  HEAD                           ALL TIMES    "1 15755"                                  sim/hds.csv                                                                     
 P38                                      CONTINUOUS  HEAD                           ALL TIMES    "1 15045"                                  sim/hds.csv                                                                     
 P39                                      CONTINUOUS  HEAD                           ALL TIMES    "1 9637"                                   sim/hds.csv                                                                     
 P40                                      CONTINUOUS  HEAD                           ALL TIMES    "1 9312"                                   sim/hds.csv                                                                     
 AP1                                      CONTINUOUS  HEAD                           ALL TIMES    "1 9702"                                   sim/hds.csv                                                                     
 RCK1                                     CONTINUOUS  HEAD                           ALL TIMES    "1 15900"                                  sim/hds.csv                                                                     
 RCK2                                     CONTINUOUS  HEAD                           ALL TIMES    "1 15199"                                  sim/hds.csv                                                                     
 P23                                      CONTINUOUS  HEAD                           ALL TIMES    "1 6409"                                   sim/hds.csv                                                                     
 ----------------------------------------------------------------------------------------------------------------------------------------------------------------------------------------------------------------------------


    BINARY GRID INFORMATION WILL BE WRITTEN TO:
      UNIT NUMBER: 1019
      FILE NAME: /srv/common/ptrack/case_study/pst/ml_08/./ml.disv.grb

 OPENED /srv/common/ptrack/case_study/pst/ml_08/./ml.disv.grb
 FILE TYPE:DATA(BINARY)   UNIT 1019   STATUS:REPLACE             
 FORMAT:UNFORMATTED            ACCESS:STREAM              
 ACTION:READWRITE           

      THE LAST TIME STEP WILL BE PRINTED
      THE LAST TIME STEP WILL BE PRINTED
 # File generated by Flopy version 3.3.5 on 06/01/2022 at 18:12:20.

 PROCESSING OC OPTIONS

    BUDGET INFORMATION WILL BE WRITTEN TO:
      UNIT NUMBER: 1020
      FILE NAME: ml.cbc

 OPENED ml.cbc
 FILE TYPE:DATA(BINARY)   UNIT 1020   STATUS:REPLACE             
 FORMAT:UNFORMATTED            ACCESS:STREAM              
 ACTION:READWRITE           

    HEAD INFORMATION WILL BE WRITTEN TO:
      UNIT NUMBER: 1021
      FILE NAME: ml.hds

 OPENED ml.hds
 FILE TYPE:DATA(BINARY)   UNIT 1021   STATUS:REPLACE             
 FORMAT:UNFORMATTED            ACCESS:STREAM              
 ACTION:READWRITE           

 END OF OC OPTIONS

The observation utility is active for "DRN_0"
 # File generated by Flopy version 3.3.5 on 06/01/2022 at 18:12:20.

Processing observation options:



start timestep kper="1" kstp="1" mode="normal"


 BEGIN READING OUTPUT CONTROL FOR STRESS PERIOD 1
      THE LAST TIME STEP WILL BE SAVED
      THE LAST TIME STEP WILL BE SAVED

 END READING OUTPUT CONTROL FOR STRESS PERIOD 1

 OPENED ext/wel_spd_08_1.txt
 FILE TYPE:OPEN/CLOSE   UNIT 1023   STATUS:OLD                 
 FORMAT:FORMATTED              ACCESS:SEQUENTIAL          
 ACTION:READ                


 OPENED ext/drn_spd_08_1.txt
 FILE TYPE:OPEN/CLOSE   UNIT 1024   STATUS:OLD                 
 FORMAT:FORMATTED              ACCESS:SEQUENTIAL          
 ACTION:READ                


 OPENED ext/riv_spd_08_1.txt
 FILE TYPE:OPEN/CLOSE   UNIT 1025   STATUS:OLD                 
 FORMAT:FORMATTED              ACCESS:SEQUENTIAL          
 ACTION:READ                


 OPENED ../com_ext/ghb_spd_1.txt
 FILE TYPE:OPEN/CLOSE   UNIT 1026   STATUS:OLD                 
 FORMAT:FORMATTED              ACCESS:SEQUENTIAL          
 ACTION:READ                


 OPENED ../com_ext/rech_spd_1.txt
 FILE TYPE:OPEN/CLOSE   UNIT 1027   STATUS:OLD                 
 FORMAT:FORMATTED              ACCESS:SEQUENTIAL          
 ACTION:READ                


 SLN_1 INNER ITERATION SUMMARY
 --------------------------------------------------------------------------------------------------------------------------------------
      TOTAL      OUTER      INNER                                                            MAXIMUM                                   
  ITERATION  ITERATION  ITERATION  MAXIMUM CHANGE      MAXIMUM CHANGE MODEL-(CELLID)        RESIDUAL    MAXIMUM RESIDUAL MODEL-(CELLID)
 --------------------------------------------------------------------------------------------------------------------------------------
          1          1          1       22.570357                    1_GWF-(1,26517)      0.20898466                    1_GWF-(1,11179)
          2          1          2       38.637643                    1_GWF-(1,26516)     -0.32073866                    1_GWF-(1,11179)
          3          1          3       49.940978                    1_GWF-(1,26515)     -0.25403124                    1_GWF-(1,11161)
          4          1          4       30.233508                    1_GWF-(1,26513)      0.21077509                    1_GWF-(1,11208)
          5          1          5       25.412843                    1_GWF-(1,26647)      0.17825472                    1_GWF-(1,11202)
          6          1          6       29.807246                    1_GWF-(1,26649)     -0.19314151                    1_GWF-(1,11207)
          7          1          7       23.250184                    1_GWF-(1,26622)      0.18852626                    1_GWF-(1,10966)
          8          1          8       17.889456                    1_GWF-(1,26623)      0.16444818                    1_GWF-(1,10960)
          9          1          9       13.874809                    1_GWF-(1,26543)  8.43120535E-02                    1_GWF-(1,10960)
         10          1         10       13.398243                    1_GWF-(1,26486)  8.73180845E-02                    1_GWF-(1,10967)
         11          1         11       10.011294                    1_GWF-(1,26487)      0.11999828                    1_GWF-(1,10966)
         12          1         12       6.9938640                    1_GWF-(1,26350)      0.10020018                    1_GWF-(1,10960)
         13          1         13       6.0479302                    1_GWF-(1,26422)  6.79921860E-02                    1_GWF-(1,10960)
         14          1         14       4.1404183                    1_GWF-(1,26350)  6.51091576E-02                    1_GWF-(1,10966)
         15          1         15       2.7894883                    1_GWF-(1,26218)  9.05023337E-02                    1_GWF-(1,10966)
         16          1         16      -2.6244143                    1_GWF-(1,26622)  7.39207365E-02                    1_GWF-(1,10960)
         17          1         17      -3.4013191                    1_GWF-(1,26623)  5.10707138E-02                    1_GWF-(1,11206)
         18          1         18      -4.3256864                    1_GWF-(1,26543)  6.02347836E-02                    1_GWF-(1,10967)
         19          1         19      -5.7816252                    1_GWF-(1,26588)  6.99638350E-02                    1_GWF-(1,10966)
         20          1         20      -4.5264269                    1_GWF-(1,26543)  4.86126846E-02                    1_GWF-(1,10960)
         21          1         21      -4.1227095                    1_GWF-(1,26487) -4.40897764E-02                    1_GWF-(1,11194)
         22          1         22      -4.4111113                    1_GWF-(1,26486)  4.27246034E-02                    1_GWF-(1,10966)
         23          1         23      -4.0322106                    1_GWF-(1,26487)  3.54440967E-02                    1_GWF-(1,10960)
         24          1         24       4.0047055                    1_GWF-(1,11577)  3.22714894E-02                    1_GWF-(1,14799)
         25          1         25       3.5922138                    1_GWF-(1,26420)  3.16056257E-02                    1_GWF-(1,14799)
         26          1         26       3.9416586                    1_GWF-(1,26487) -4.02215598E-02                    1_GWF-(1,11206)
         27          1         27       3.7759443                    1_GWF-(1,26420)  4.12468874E-02                    1_GWF-(1,11206)
         28          1         28       2.7057277                    1_GWF-(1,26543)  3.98777424E-02                    1_GWF-(1,14799)
         29          1         29       2.2916414                    1_GWF-(1,11706)  3.46074556E-02                    1_GWF-(1,14798)
         30          1         30       2.1035658                    1_GWF-(1,26422)  2.95313494E-02                    1_GWF-(1,14799)
         31          1         31      -2.3381556                    1_GWF-(1,11707) -4.20459415E-02                    1_GWF-(1,11206)
         32          1         32       2.6917059                    1_GWF-(1,26422)  4.01176641E-02                    1_GWF-(1,14799)
         33          1         33      -2.6778889                    1_GWF-(1,26422)  3.54254176E-02                    1_GWF-(1,14799)
         34          1         34      -2.6751494                    1_GWF-(1,26350)  3.46820342E-02                    1_GWF-(1,14799)
         35          1         35      -2.5833154                    1_GWF-(1,26422)  2.84044910E-02                    1_GWF-(1,14799)
         36          1         36      -2.0202389                    1_GWF-(1,26544)  3.14925492E-02                    1_GWF-(1,14799)
         37          1         37      -1.5445960                    1_GWF-(1,26486)  3.26263774E-02                    1_GWF-(1,14799)
         38          1         38      -1.6979477                    1_GWF-(1,11621) -2.59453060E-02                    1_GWF-(1,10960)
         39          1         39      -1.4980560                    1_GWF-(1,26649)  3.29790687E-02                    1_GWF-(1,14799)
         40          1         40       1.8932127                    1_GWF-(1,11621) -4.23161341E-02                    1_GWF-(1,11206)
         41          1         41      -1.1365869                    1_GWF-(1,11486)  4.20214879E-02                    1_GWF-(1,11206)
         42          1         42      -1.6158774                    1_GWF-(1,11619) -4.71068760E-02                    1_GWF-(1,11206)
         43          1         43       1.3291719                    1_GWF-(1,26350)  4.33087590E-02                    1_GWF-(1,11206)
         44          1         44       1.3047887                    1_GWF-(1,26217) -4.69767998E-02                    1_GWF-(1,11206)
         45          1         45      -1.4784348                    1_GWF-(1,11622)  4.46203998E-02                    1_GWF-(1,11206)
         46          1         46      0.90780739                    1_GWF-(1,11384)  4.95928035E-02                    1_GWF-(1,14801)
         47          1         47      -1.2599568                    1_GWF-(1,26217)  7.36320511E-02                    1_GWF-(1,14799)
         48          1         48      -1.3556988                    1_GWF-(1,26218) -6.22883854E-02                    1_GWF-(1,14799)
         49          1         49      -1.5366224                    1_GWF-(1,26217)      0.10199322                    1_GWF-(1,14799)
         50          1         50      -1.6755823                    1_GWF-(1,26218)      0.12888619                    1_GWF-(1,14801)
         51          2          1      -167.03691                    1_GWF-(1,26519)     -0.24141473                    1_GWF-(1,26458)
         52          2          2      -63.564936                    1_GWF-(1,26513)  5.81242214E-02                    1_GWF-(1,26458)
         53          2          3      -38.562831                    1_GWF-(1,26637)  7.22946573E-02                    1_GWF-(1,14799)
         54          2          4      -35.330718                    1_GWF-(1,26665)  6.16457255E-02                    1_GWF-(1,14801)
         55          2          5      -23.383140                    1_GWF-(1,26622)  8.92197577E-02                    1_GWF-(1,14799)
         56          2          6      -19.482400                    1_GWF-(1,26588)  8.51153500E-02                    1_GWF-(1,14801)
         57          2          7      -18.610455                    1_GWF-(1,26543)      0.13111286                    1_GWF-(1,14799)
         58          2          8      -13.411468                    1_GWF-(1,26486)      0.13386566                    1_GWF-(1,14801)
         59          2          9      -9.8517338                    1_GWF-(1,26487)      0.12841210                    1_GWF-(1,14799)
         60          2         10      -7.3334968                    1_GWF-(1,26421)  5.74076453E-02                    1_GWF-(1,14801)
         61          2         11      -7.2354020                    1_GWF-(1,26350)  2.62261590E-02                    1_GWF-(1,14801)
         62          2         12      -4.3831349                    1_GWF-(1,26217)  5.62090910E-02                    1_GWF-(1,14799)
         63          2         13      -2.5427328                    1_GWF-(1,26622)  6.36923564E-02                    1_GWF-(1,14801)
         64          2         14      -1.8446905                    1_GWF-(1,26623)  5.10208979E-02                    1_GWF-(1,14799)
         65          2         15      -1.7789311                    1_GWF-(1,26622)  2.12740055E-02                    1_GWF-(1,14801)
         66          2         16      -1.6567112                    1_GWF-(1,25728)  5.50695282E-02                    1_GWF-(1,14801)
         67          2         17       2.1719719                    1_GWF-(1,26350)      0.10822134                    1_GWF-(1,14799)
         68          2         18       1.9795373                    1_GWF-(1,26422)  9.64115525E-02                    1_GWF-(1,14801)
         69          2         19       2.1018848                    1_GWF-(1,26588)  8.49116355E-02                    1_GWF-(1,14799)
         70          2         20       1.9340805                    1_GWF-(1,26543)  1.51762492E-02                    1_GWF-(1,14801)
         71          2         21       2.0872761                    1_GWF-(1,26588)  8.64736461E-02                    1_GWF-(1,14801)
         72          2         22       2.4331096                    1_GWF-(1,26543)      0.14829529                    1_GWF-(1,14799)
         73          2         23       1.8915365                    1_GWF-(1,26544)      0.16825856                    1_GWF-(1,14801)
         74          2         24      -2.8641810                    1_GWF-(1,26487)      0.12885590                    1_GWF-(1,14799)
         75          2         25      -3.4636761                    1_GWF-(1,26486)  2.03483446E-02                    1_GWF-(1,14799)
         76          2         26      -3.6909309                    1_GWF-(1,26487)      0.15086079                    1_GWF-(1,14801)
         77          2         27      -2.5694907                    1_GWF-(1,26420)      0.26360070                    1_GWF-(1,14799)
         78          2         28       1.8117198                    1_GWF-(1,26217)      0.22843451                    1_GWF-(1,14801)
         79          2         29      -1.5648145                    1_GWF-(1,26327)      0.23319359                    1_GWF-(1,14799)
         80          2         30       1.5590891                    1_GWF-(1,26420)      0.19715865                    1_GWF-(1,14801)
         81          2         31      -1.1867575                    1_GWF-(1,26674)      0.18207876                    1_GWF-(1,14799)
         82          2         32      -1.1057702                    1_GWF-(1,26422)      0.15432778                    1_GWF-(1,14801)
         83          2         33      -1.1447632                    1_GWF-(1,26350)      0.12442075                    1_GWF-(1,14800)
         84          2         34      0.95915037                    1_GWF-(1,26350)      0.11026139                    1_GWF-(1,14801)
         85          2         35       1.3644688                    1_GWF-(1,26422)  7.80566897E-02                    1_GWF-(1,14800)
         86          2         36      0.92887705                    1_GWF-(1,26218)  5.48010939E-02                    1_GWF-(1,14801)
         87          2         37     -0.74082567                    1_GWF-(1,26350)  3.13598382E-02                    1_GWF-(1,14800)
         88          2         38      0.73478180                    1_GWF-(1,26350)  5.10218977E-02                    1_GWF-(1,14799)
         89          2         39      0.91496473                    1_GWF-(1,26422)  6.36667554E-02                    1_GWF-(1,14798)
         90          2         40     -0.95941698                    1_GWF-(1,26486)      0.12950626                    1_GWF-(1,14799)
         91          2         41      -1.0153115                    1_GWF-(1,26420)     -0.13396279                    1_GWF-(1,14799)
         92          2         42     -0.89634863                    1_GWF-(1,26421)      0.18150981                    1_GWF-(1,14799)
         93          2         43     -0.98022059                    1_GWF-(1,26350)      0.15787011                    1_GWF-(1,14801)
         94          2         44     -0.74836797                    1_GWF-(1,26218)      0.15607955                    1_GWF-(1,14799)
         95          2         45      -1.0402006                    1_GWF-(1,26420)      0.12621668                    1_GWF-(1,14801)
         96          2         46     -0.69938707                    1_GWF-(1,26486)  9.24477128E-02                    1_GWF-(1,14800)
         97          2         47     -0.69494923                    1_GWF-(1,26663)  8.97894621E-02                    1_GWF-(1,14801)
         98          2         48     -0.58818356                    1_GWF-(1,26623)  6.82852867E-02                    1_GWF-(1,14800)
         99          2         49     -0.65597871                    1_GWF-(1,22783)  7.44543379E-02                    1_GWF-(1,14801)
        100          2         50     -0.53492098                    1_GWF-(1,26604)  6.82289646E-02                    1_GWF-(1,14800)
        101          3          1     -0.41726911                    1_GWF-(1,11437)  2.95802922E-02                    1_GWF-(1,14801)
        102          3          2      0.55379849                    1_GWF-(1,22783)  9.06783163E-02                    1_GWF-(1,14800)
        103          3          3      0.54075261                    1_GWF-(1,26623)      0.11484942                    1_GWF-(1,14801)
        104          3          4      0.57921533                    1_GWF-(1,26649)  7.28097255E-02                    1_GWF-(1,14800)
        105          3          5     -0.48515281                    1_GWF-(1,11438)      0.11705269                    1_GWF-(1,14801)
        106          3          6      0.52714411                    1_GWF-(1,11438)      0.14015713                    1_GWF-(1,14800)
        107          3          7     -0.51263472                    1_GWF-(1,26350)      0.13046147                    1_GWF-(1,14801)
        108          3          8     -0.64663353                    1_GWF-(1,26421)      0.11015321                    1_GWF-(1,14800)
        109          3          9      0.69150355                    1_GWF-(1,11438)      0.13627389                    1_GWF-(1,14801)
        110          3         10      0.64161701                    1_GWF-(1,26350)  9.01924976E-02                    1_GWF-(1,14800)
        111          3         11      0.50332868                    1_GWF-(1,26486)  6.39678199E-02                    1_GWF-(1,14801)
        112          3         12      0.62447481                    1_GWF-(1,11438)  3.67216617E-02                    1_GWF-(1,14800)
        113          3         13      0.42232653                    1_GWF-(1,26422)  3.68525328E-02                    1_GWF-(1,10966)
        114          3         14      0.43326576                    1_GWF-(1,26350)  3.96414514E-02                    1_GWF-(1,14799)
        115          3         15     -0.53682656                    1_GWF-(1,26350)  4.62469920E-02                    1_GWF-(1,10966)
        116          3         16     -0.55796461                    1_GWF-(1,26422)  6.45650033E-02                    1_GWF-(1,14799)
        117          3         17      0.45441761                    1_GWF-(1,26422)  5.03969204E-02                    1_GWF-(1,14800)
        118          3         18      0.47517161                    1_GWF-(1,26350)  6.92442139E-02                    1_GWF-(1,14801)
        119          3         19     -0.58728921                    1_GWF-(1,11438)  8.00815438E-02                    1_GWF-(1,14800)
        120          3         20      0.47620708                    1_GWF-(1,26659)  8.87355822E-02                    1_GWF-(1,14801)
        121          3         21     -0.50154386                    1_GWF-(1,26420)  8.13069832E-02                    1_GWF-(1,14800)
        122          3         22     -0.71752602                    1_GWF-(1,11438)      0.10220368                    1_GWF-(1,14801)
        123          3         23     -0.54629633                    1_GWF-(1,11458)  9.02470810E-02                    1_GWF-(1,14800)
        124          3         24     -0.45859627                    1_GWF-(1,26421)  7.47031567E-02                    1_GWF-(1,14801)
        125          3         25      0.74514838                    1_GWF-(1,26487) -4.93290802E-02                    1_GWF-(1,10966)
        126          3         26      0.90701185                    1_GWF-(1,26420)  2.02444178E-02                    1_GWF-(1,14798)
        127          3         27      0.81375307                    1_GWF-(1,26487)  3.78080325E-02                    1_GWF-(1,14801)
        128          3         28      0.57152426                    1_GWF-(1,26486)  4.89635982E-02                    1_GWF-(1,14800)
        129          3         29     -0.64960018                    1_GWF-(1,26486)  5.42559618E-02                    1_GWF-(1,14801)
        130          3         30     -0.61172219                    1_GWF-(1,26544) -3.54082386E-02                    1_GWF-(1,10966)
        131          3         31      0.56048798                    1_GWF-(1,26588) -2.50656319E-02                    1_GWF-(1,14799)
        132          3         32      0.65833947                    1_GWF-(1,26543)  2.53526239E-02                    1_GWF-(1,14801)
        133          3         33     -0.62420191                    1_GWF-(1,26543) -4.17325264E-02                    1_GWF-(1,10966)
        134          3         34     -0.60521764                    1_GWF-(1,26588)  4.79260357E-02                    1_GWF-(1,10966)
        135          3         35      0.55380538                    1_GWF-(1,26588)  4.56489832E-02                    1_GWF-(1,14799)
        136          3         36      0.44650219                    1_GWF-(1,26665) -3.34966902E-02                    1_GWF-(1,14799)
        137          3         37      0.49316722                    1_GWF-(1,26623)  2.43326482E-02                    1_GWF-(1,14799)
        138          3         38      0.65821041                    1_GWF-(1,26622) -2.10618549E-02                    1_GWF-(1,10966)
        139          3         39      0.50670587                    1_GWF-(1,26649)  3.36980839E-02                    1_GWF-(1,10966)
        140          3         40     -0.48235478                    1_GWF-(1,26649)  4.67338668E-02                    1_GWF-(1,14799)
        141          3         41     -0.46339340                    1_GWF-(1,26648) -3.40464669E-02                    1_GWF-(1,14799)
        142          3         42     -0.62977860                    1_GWF-(1,26665)  1.44026068E-02                    1_GWF-(1,10966)
        143          3         43     -0.59531036                    1_GWF-(1,26666) -3.05334963E-02                    1_GWF-(1,10966)
        144          3         44     -0.45926906                    1_GWF-(1,26665) -3.64981367E-02                    1_GWF-(1,14799)
        145          3         45      0.58793852                    1_GWF-(1,26665)  5.91662060E-02                    1_GWF-(1,14799)
        146          3         46      0.49486748                    1_GWF-(1,26666) -5.79355390E-02                    1_GWF-(1,14799)
        147          3         47      0.33295135                    1_GWF-(1,11453)  7.48311294E-02                    1_GWF-(1,14799)
        148          3         48     -0.30898133                    1_GWF-(1,26154) -6.32623271E-02                    1_GWF-(1,14799)
        149          3         49     -0.33919327                    1_GWF-(1,26649)  9.40105189E-02                    1_GWF-(1,14799)
        150          3         50     -0.38701644                    1_GWF-(1,26637) -7.47725675E-02                    1_GWF-(1,14799)
        151          4          1      -1.0931925                    1_GWF-(1,16215)  2.41942580E-02                    1_GWF-(1,14799)
        152          4          2     -0.81610720                    1_GWF-(1,16130) -7.12056416E-02                    1_GWF-(1,14799)
        153          4          3      0.36768564                    1_GWF-(1,16130)      0.10664177                    1_GWF-(1,14799)
        154          4          4      0.50019718                    1_GWF-(1,16125) -7.90049511E-02                    1_GWF-(1,14799)
        155          4          5     -0.42720071                    1_GWF-(1,16211)  7.34092996E-02                    1_GWF-(1,14799)
        156          4          6      0.48617449                    1_GWF-(1,16130) -5.83286624E-02                    1_GWF-(1,14799)
        157          4          7      0.36854138                    1_GWF-(1,16126)  4.79370465E-02                    1_GWF-(1,14799)
        158          4          8     -0.31592199                    1_GWF-(1,26665) -2.30969128E-02                    1_GWF-(1,14799)
        159          4          9      0.33546580                    1_GWF-(1,26665)  8.23747964E-03                    1_GWF-(1,14800)
        160          4         10      0.34232619                    1_GWF-(1,26666)  2.53240536E-02                    1_GWF-(1,14799)
        161          4         11      0.35643713                    1_GWF-(1,26665) -3.34596964E-02                    1_GWF-(1,14799)
        162          4         12     -0.24880919                    1_GWF-(1,26649)  3.28788914E-02                    1_GWF-(1,14799)
        163          4         13      0.28091095                    1_GWF-(1,26649)  1.30394863E-02                    1_GWF-(1,14801)
        164          4         14      0.31883390                    1_GWF-(1,26622) -6.02752250E-03                    1_GWF-(1,14799)
        165          4         15      0.26449468                    1_GWF-(1,26623)  2.60014255E-02                    1_GWF-(1,14799)
        166          4         16     -0.26531164                    1_GWF-(1,26623) -3.13584955E-02                    1_GWF-(1,14799)
        167          4         17     -0.23679416                    1_GWF-(1,26622)  2.79772127E-02                    1_GWF-(1,14799)
        168          4         18      0.30109228                    1_GWF-(1,11659)  1.57069797E-02                    1_GWF-(1,14801)
        169          4         19     -0.32059378                    1_GWF-(1,26543)  1.14484472E-02                    1_GWF-(1,14800)
        170          4         20     -0.39893070                    1_GWF-(1,26588)  1.61504248E-02                    1_GWF-(1,14799)
        171          4         21     -0.33686490                    1_GWF-(1,26543) -1.75430503E-02                    1_GWF-(1,14799)
        172          4         22      0.18314379                    1_GWF-(1,26486)  1.82221984E-02                    1_GWF-(1,14799)
        173          4         23      0.18675251                    1_GWF-(1,26487)  1.67643991E-02                    1_GWF-(1,14801)
        174          4         24      0.24816219                    1_GWF-(1,26486)  1.30688733E-02                    1_GWF-(1,14800)
        175          4         25      0.28392572                    1_GWF-(1,26487)  1.13112014E-02                    1_GWF-(1,14799)
        176          4         26      0.26573639                    1_GWF-(1,26486)  1.15854873E-02                    1_GWF-(1,14798)
        177          4         27      0.24799300                    1_GWF-(1,26487)  1.69844474E-02                    1_GWF-(1,14800)
        178          4         28      0.17658460                    1_GWF-(1,26420)  2.39479314E-02                    1_GWF-(1,14801)
        179          4         29      0.20490819                    1_GWF-(1,26218)  2.40731434E-02                    1_GWF-(1,14800)
        180          4         30      0.14502739                    1_GWF-(1,26217)  2.53648123E-02                    1_GWF-(1,14801)
        181          4         31      0.12716255                    1_GWF-(1,26486) -2.36615836E-02                    1_GWF-(1,14801)
        182          4         32      0.11561513                    1_GWF-(1,11572)  2.46587912E-02                    1_GWF-(1,14801)
        183          4         33     -0.11206364                    1_GWF-(1,26544)  2.00335012E-02                    1_GWF-(1,14800)
        184          4         34     -0.15727899                    1_GWF-(1,26486)  2.12542138E-02                    1_GWF-(1,14801)
        185          4         35     -0.15828615                    1_GWF-(1,26350)  1.33060811E-02                    1_GWF-(1,14800)
        186          4         36     -0.19397865                    1_GWF-(1,26422)  1.39045802E-02                    1_GWF-(1,14799)
        187          4         37     -0.16189738                    1_GWF-(1,26350)  7.50827927E-03                    1_GWF-(1,14798)
        188          4         38     -0.14275874                    1_GWF-(1,26422)  1.00014411E-02                    1_GWF-(1,14799)
        189          4         39     -0.13052807                    1_GWF-(1,26350)  5.47591852E-03                    1_GWF-(1,14798)
        190          4         40     -0.11533949                    1_GWF-(1,26422)  7.92859192E-03                    1_GWF-(1,14800)
        191          4         41     -0.10329110                    1_GWF-(1,26350)  1.36657401E-02                    1_GWF-(1,14801)
        192          4         42  9.29853477E-02                    1_GWF-(1,26350)  1.57508889E-02                    1_GWF-(1,14800)
        193          4         43      0.12642896                    1_GWF-(1,26422)  1.98107665E-02                    1_GWF-(1,14801)
        194          4         44      0.14687837                    1_GWF-(1,26350)  1.91120069E-02                    1_GWF-(1,14800)
        195          4         45      0.13830446                    1_GWF-(1,26422)  2.24428653E-02                    1_GWF-(1,14801)
        196          4         46  9.76913569E-02                    1_GWF-(1,26420)  1.96775903E-02                    1_GWF-(1,14800)
        197          4         47  9.56380874E-02                    1_GWF-(1,11572)  2.08702326E-02                    1_GWF-(1,14801)
        198          4         48  7.49765895E-02                    1_GWF-(1,26589)  1.47293386E-02                    1_GWF-(1,14800)
        199          4         49 -7.00257105E-02                    1_GWF-(1,26420)  1.56063858E-02                    1_GWF-(1,14801)
        200          4         50 -7.85010800E-02                    1_GWF-(1,11662)  1.23263043E-02                    1_GWF-(1,14800)
        201          5          1     -0.13029035                    1_GWF-(1,11442)  4.88684433E-03                    1_GWF-(1,14801)
        202          5          2     -0.10106969                    1_GWF-(1,11438)  1.74561028E-02                    1_GWF-(1,14800)
        203          5          3  7.74304111E-02                    1_GWF-(1,11438)  2.02029895E-02                    1_GWF-(1,14801)
        204          5          4 -9.13783236E-02                    1_GWF-(1,26486)  1.14205253E-02                    1_GWF-(1,14800)
        205          5          5     -0.19395187                    1_GWF-(1,11438)  1.72805706E-02                    1_GWF-(1,14801)
        206          5          6      0.20113509                    1_GWF-(1,11438) -1.90444626E-02                    1_GWF-(1,14801)
        207          5          7     -0.11704409                    1_GWF-(1,26350)  1.55662625E-02                    1_GWF-(1,14801)
        208          5          8     -0.18942947                    1_GWF-(1,11438)  1.27547004E-02                    1_GWF-(1,14800)
        209          5          9      0.25041982                    1_GWF-(1,11438)  1.40855772E-02                    1_GWF-(1,14801)
        210          5         10      0.10336387                    1_GWF-(1,11417)  8.51618478E-03                    1_GWF-(1,14800)
        211          5         11     -0.11894942                    1_GWF-(1,11438)  5.53714222E-03                    1_GWF-(1,14801)
        212          5         12      0.21675755                    1_GWF-(1,11438)  6.26977237E-03                    1_GWF-(1,14799)
        213          5         13     -0.13606593                    1_GWF-(1,11438)  4.91742568E-03                    1_GWF-(1,14798)
        214          5         14      0.11651836                    1_GWF-(1,26350)  7.76002037E-03                    1_GWF-(1,14799)
        215          5         15      0.15223476                    1_GWF-(1,11438)  6.79748981E-03                    1_GWF-(1,14800)
        216          5         16      0.14328670                    1_GWF-(1,11458)  1.03725434E-02                    1_GWF-(1,14801)
        217          5         17 -9.46868714E-02                    1_GWF-(1,11417)  8.81788964E-03                    1_GWF-(1,14800)
        218          5         18      0.13692015                    1_GWF-(1,11438)  1.13365939E-02                    1_GWF-(1,14801)
        219          5         19      0.20409270                    1_GWF-(1,11458)  1.11885755E-02                    1_GWF-(1,14800)
        220          5         20     -0.10398562                    1_GWF-(1,11458)  1.24444802E-02                    1_GWF-(1,14801)
        221          5         21     -0.12697941                    1_GWF-(1,11453)  1.08239524E-02                    1_GWF-(1,14800)
        222          5         22      0.17543356                    1_GWF-(1,11458)  1.07001996E-02                    1_GWF-(1,14801)
        223          5         23     -0.12491519                    1_GWF-(1,26588)  5.38418372E-03                    1_GWF-(1,14800)
        224          5         24     -0.12629867                    1_GWF-(1,26543)  3.12687833E-03                    1_GWF-(1,14800)
        225          5         25      0.12418027                    1_GWF-(1,11458)  8.64897121E-03                    1_GWF-(1,14801)
        226          5         26      0.10877477                    1_GWF-(1,11453)  7.94908872E-03                    1_GWF-(1,14800)
        227          5         27      0.10214962                    1_GWF-(1,11438)  7.69902065E-03                    1_GWF-(1,14801)
        228          5         28  9.60036442E-02                    1_GWF-(1,11458)  6.51403476E-03                    1_GWF-(1,14799)
        229          5         29     -0.10488120                    1_GWF-(1,11369) -4.92495006E-03                    1_GWF-(1,14799)
        230          5         30  8.04234041E-02                    1_GWF-(1,26543)  4.47445645E-03                    1_GWF-(1,14799)
        231          5         31      0.10861106                    1_GWF-(1,26588)  4.17302705E-03                    1_GWF-(1,14800)
        232          5         32     -0.10522466                    1_GWF-(1,11369)  5.44459693E-03                    1_GWF-(1,14801)
        233          5         33  6.75655939E-02                    1_GWF-(1,11438)  6.73566489E-03                    1_GWF-(1,14799)
        234          5         34  6.31984294E-02                    1_GWF-(1,11412) -7.92724468E-03                    1_GWF-(1,14799)
        235          5         35     -0.10492530                    1_GWF-(1,11369)  8.11020425E-03                    1_GWF-(1,14799)
        236          5         36  6.94610621E-02                    1_GWF-(1,26665) -4.06842179E-03                    1_GWF-(1,14799)
        237          5         37  6.82134249E-02                    1_GWF-(1,26666)  2.68433437E-03                    1_GWF-(1,14801)
        238          5         38 -8.60761871E-02                    1_GWF-(1,11369)  4.60715097E-03                    1_GWF-(1,14799)
        239          5         39 -5.37917895E-02                    1_GWF-(1,11412) -6.45477886E-03                    1_GWF-(1,14799)
        240          5         40 -5.60342435E-02                    1_GWF-(1,26420)  7.95321376E-03                    1_GWF-(1,14799)
        241          5         41  6.97346638E-02                    1_GWF-(1,11453) -3.51379462E-03                    1_GWF-(1,14799)
        242          5         42 -7.48306608E-02                    1_GWF-(1,26665)  2.36512547E-03                    1_GWF-(1,10966)
        243          5         43 -6.69119618E-02                    1_GWF-(1,11453)  5.85696891E-03                    1_GWF-(1,14799)
        244          5         44  6.60648906E-02                    1_GWF-(1,11453) -7.58608981E-03                    1_GWF-(1,14799)
        245          5         45  5.28066070E-02                    1_GWF-(1,26665)  1.06601624E-02                    1_GWF-(1,14799)
        246          5         46 -6.38226683E-02                    1_GWF-(1,11453) -1.09507081E-02                    1_GWF-(1,14799)
        247          5         47  7.53646710E-02                    1_GWF-(1,11453)  1.31959753E-02                    1_GWF-(1,14799)
        248          5         48  4.26163919E-02                    1_GWF-(1,26218) -1.15493649E-02                    1_GWF-(1,14799)
        249          5         49  8.42334926E-02                    1_GWF-(1,16130)  8.45629821E-03                    1_GWF-(1,14799)
        250          5         50      0.11744833                    1_GWF-(1,11453) -1.03624538E-02                    1_GWF-(1,14799)
        251          6          1      0.14118756                    1_GWF-(1,11440)  3.92808566E-03                    1_GWF-(1,14799)
        252          6          2  8.64079027E-02                    1_GWF-(1,11438) -1.16018618E-02                    1_GWF-(1,14799)
        253          6          3 -6.34923631E-02                    1_GWF-(1,11438)  1.39374141E-02                    1_GWF-(1,14799)
        254          6          4  4.82695989E-02                    1_GWF-(1,16114) -8.72460405E-03                    1_GWF-(1,14799)
        255          6          5  9.16558866E-02                    1_GWF-(1,11438)  9.62948002E-03                    1_GWF-(1,14799)
        256          6          6 -7.94393407E-02                    1_GWF-(1,11438) -8.93797924E-03                    1_GWF-(1,14799)
        257          6          7 -5.24798034E-02                    1_GWF-(1,11437)  6.45535980E-03                    1_GWF-(1,14799)
        258          6          8 -4.44334674E-02                    1_GWF-(1,26665) -2.18560685E-03                    1_GWF-(1,14799)
        259          6          9  5.36829204E-02                    1_GWF-(1,11458)  1.32576410E-03                    1_GWF-(1,14798)
        260          6         10  5.18842877E-02                    1_GWF-(1,26487)  4.97008876E-03                    1_GWF-(1,14799)
        261          6         11 -4.61460989E-02                    1_GWF-(1,11458) -5.22354528E-03                    1_GWF-(1,14799)
        262          6         12  5.67232543E-02                    1_GWF-(1,11458)  4.63593875E-03                    1_GWF-(1,14799)
        263          6         13 -5.25702592E-02                    1_GWF-(1,11437)  1.84337418E-03                    1_GWF-(1,14801)
        264          6         14 -4.13916003E-02                    1_GWF-(1,11458) -1.38717478E-03                    1_GWF-(1,14799)
        265          6         15  3.97529441E-02                    1_GWF-(1,11458)  4.00935928E-03                    1_GWF-(1,14799)
        266          6         16 -5.04611554E-02                    1_GWF-(1,11437) -4.20640021E-03                    1_GWF-(1,14799)
        267          6         17 -3.91996483E-02                    1_GWF-(1,11458)  3.89197192E-03                    1_GWF-(1,14799)
        268          6         18  3.46711550E-02                    1_GWF-(1,11458)  2.42431167E-03                    1_GWF-(1,14801)
        269          6         19 -4.26710215E-02                    1_GWF-(1,11437)  2.08055247E-03                    1_GWF-(1,14800)
        270          6         20 -4.67274446E-02                    1_GWF-(1,26588)  1.48259083E-03                    1_GWF-(1,14801)
        271          6         21 -4.22136237E-02                    1_GWF-(1,26543) -2.05807610E-03                    1_GWF-(1,14799)
        272          6         22 -3.14321780E-02                    1_GWF-(1,11437)  2.66911758E-03                    1_GWF-(1,14799)
        273          6         23  2.92796588E-02                    1_GWF-(1,11573)  2.67435201E-03                    1_GWF-(1,14801)
        274          6         24 -2.67900720E-02                    1_GWF-(1,26217)  2.84388889E-03                    1_GWF-(1,14800)
        275          6         25  3.02917886E-02                    1_GWF-(1,11417)  3.08451435E-03                    1_GWF-(1,14801)
        276          6         26  3.28744094E-02                    1_GWF-(1,26588)  1.83088145E-03                    1_GWF-(1,14800)
        277          6         27  4.04201827E-02                    1_GWF-(1,26543)  1.61349176E-03                    1_GWF-(1,14799)
        278          6         28  4.50676490E-02                    1_GWF-(1,26588)  2.47564333E-03                    1_GWF-(1,14801)
        279          6         29  2.83912996E-02                    1_GWF-(1,26218)  3.03174016E-03                    1_GWF-(1,14800)
        280          6         30  2.63975545E-02                    1_GWF-(1,11414)  3.49419179E-03                    1_GWF-(1,14801)
        281          6         31  3.03045271E-02                    1_GWF-(1,26486)  2.98915917E-03                    1_GWF-(1,14800)
        282          6         32  2.14643146E-02                    1_GWF-(1,26544)  3.43049566E-03                    1_GWF-(1,14801)
        283          6         33 -1.97950007E-02                    1_GWF-(1,11458)  2.56527752E-03                    1_GWF-(1,14800)
        284          6         34 -2.04917462E-02                    1_GWF-(1,26486)  2.70009178E-03                    1_GWF-(1,14801)
        285          6         35 -2.04102524E-02                    1_GWF-(1,26350)  1.95145045E-03                    1_GWF-(1,14800)
        286          6         36 -2.67288128E-02                    1_GWF-(1,26422)  2.08563775E-03                    1_GWF-(1,14799)
        287          6         37 -2.59174603E-02                    1_GWF-(1,26350)  1.20628735E-03                    1_GWF-(1,14798)
        288          6         38 -2.73718459E-02                    1_GWF-(1,26422)  1.54468760E-03                    1_GWF-(1,14799)
        289          6         39 -2.48013332E-02                    1_GWF-(1,26350)  8.75855646E-04                    1_GWF-(1,10966)
        290          6         40 -1.90439882E-02                    1_GWF-(1,26422)  1.18596502E-03                    1_GWF-(1,14800)
        291          6         41 -1.52059802E-02                    1_GWF-(1,26350)  1.96015929E-03                    1_GWF-(1,14801)
        292          6         42 -1.43434947E-02                    1_GWF-(1,11458)  2.10083709E-03                    1_GWF-(1,14800)
        293          6         43  1.74722771E-02                    1_GWF-(1,26422)  2.65277406E-03                    1_GWF-(1,14801)
        294          6         44  2.03184770E-02                    1_GWF-(1,26350)  2.60598344E-03                    1_GWF-(1,14800)
        295          6         45  1.77695989E-02                    1_GWF-(1,26421)  2.85478795E-03                    1_GWF-(1,14801)
        296          6         46  1.53746723E-02                    1_GWF-(1,26420)  2.30442734E-03                    1_GWF-(1,14800)
        297          6         47  1.57904464E-02                    1_GWF-(1,26486)  2.67225335E-03                    1_GWF-(1,14801)
        298          6         48 -1.41562496E-02                    1_GWF-(1,11416)  2.15487881E-03                    1_GWF-(1,14800)
        299          6         49 -1.79486167E-02                    1_GWF-(1,11438)  2.31131059E-03                    1_GWF-(1,14801)
        300          6         50  1.54127303E-02                    1_GWF-(1,11438)  1.95319092E-03                    1_GWF-(1,14800)
        301          7          1     -0.14599753                    1_GWF-(1,11440)  7.35827412E-04                    1_GWF-(1,14801)
        302          7          2 -8.37438478E-02                    1_GWF-(1,11438)  2.38772823E-03                    1_GWF-(1,14800)
        303          7          3  5.91562860E-02                    1_GWF-(1,11438)  2.91698664E-03                    1_GWF-(1,14801)
        304          7          4  5.64918704E-02                    1_GWF-(1,11416)  2.00521637E-03                    1_GWF-(1,14800)
        305          7          5 -9.25849090E-02                    1_GWF-(1,11438)  2.24617363E-03                    1_GWF-(1,14801)
        306          7          6  7.05311088E-02                    1_GWF-(1,11438)  2.01913889E-03                    1_GWF-(1,14800)
        307          7          7  6.22280034E-02                    1_GWF-(1,11417)  2.34591595E-03                    1_GWF-(1,14801)
        308          7          8 -4.88772165E-02                    1_GWF-(1,11417)  1.99963833E-03                    1_GWF-(1,14800)
        309          7          9  4.63426730E-02                    1_GWF-(1,11438)  2.05844857E-03                    1_GWF-(1,14801)
        310          7         10  5.80760970E-02                    1_GWF-(1,11417)  1.39906556E-03                    1_GWF-(1,14800)
        311          7         11 -5.52792356E-02                    1_GWF-(1,11417)  1.05555172E-03                    1_GWF-(1,14801)
        312          7         12 -5.17319791E-02                    1_GWF-(1,11458)  8.19257579E-04                    1_GWF-(1,14799)
        313          7         13  4.41634689E-02                    1_GWF-(1,11458)  8.55750737E-04                    1_GWF-(1,10966)
        314          7         14 -3.78822031E-02                    1_GWF-(1,11417)  1.23718502E-03                    1_GWF-(1,14799)
        315          7         15 -3.73036022E-02                    1_GWF-(1,11458) -9.30289437E-04                    1_GWF-(1,14799)
        316          7         16  4.28028935E-02                    1_GWF-(1,11458)  1.43318078E-03                    1_GWF-(1,14799)
        317          7         17  3.45759654E-02                    1_GWF-(1,11453)  1.23513207E-03                    1_GWF-(1,14800)
        318          7         18 -3.26475608E-02                    1_GWF-(1,11453)  1.57726114E-03                    1_GWF-(1,14801)
        319          7         19  3.66947932E-02                    1_GWF-(1,11458)  1.37550121E-03                    1_GWF-(1,14800)
        320          7         20  3.26564781E-02                    1_GWF-(1,11453)  1.41889514E-03                    1_GWF-(1,14801)
        321          7         21 -3.44464208E-02                    1_GWF-(1,11453)  7.31624973E-04                    1_GWF-(1,14800)
        322          7         22 -1.99555398E-02                    1_GWF-(1,11452)  4.86050698E-04                    1_GWF-(1,14798)
        323          7         23  3.49130891E-02                    1_GWF-(1,11453)  1.40157554E-03                    1_GWF-(1,14801)
        324          7         24 -3.04830704E-02                    1_GWF-(1,11453)  1.60595131E-03                    1_GWF-(1,14800)
        325          7         25  1.96882825E-02                    1_GWF-(1,11369)  1.78138288E-03                    1_GWF-(1,14801)
        326          7         26 -3.27790884E-02                    1_GWF-(1,11369)  1.31897573E-03                    1_GWF-(1,14800)
        327          7         27 -2.52729900E-02                    1_GWF-(1,11453)  1.17727491E-03                    1_GWF-(1,14801)
        328          7         28 -1.29755280E-02                    1_GWF-(1,11454)  7.85100501E-04                    1_GWF-(1,14799)
        329          7         29 -2.33826079E-02                    1_GWF-(1,11369)  3.22613921E-04                    1_GWF-(1,14798)
        330          7         30  1.43228099E-02                    1_GWF-(1,26543)  9.30599637E-04                    1_GWF-(1,14801)
        331          7         31  1.68466955E-02                    1_GWF-(1,11369)  9.90857424E-04                    1_GWF-(1,14800)
        332          7         32 -2.40920781E-02                    1_GWF-(1,11369)  8.84277525E-04                    1_GWF-(1,14801)
        333          7         33  1.29084653E-02                    1_GWF-(1,11415)  1.02641139E-03                    1_GWF-(1,14799)
        334          7         34 -1.08838641E-02                    1_GWF-(1,11415) -8.93705351E-04                    1_GWF-(1,14799)
        335          7         35 -1.90653273E-02                    1_GWF-(1,11369)  6.45553664E-04                    1_GWF-(1,14799)
        336          7         36  1.16228256E-02                    1_GWF-(1,11415)  4.71662510E-04                    1_GWF-(1,14800)
        337          7         37 -1.00950469E-02                    1_GWF-(1,26588)  7.08584184E-04                    1_GWF-(1,14801)
        338          7         38 -1.57104136E-02                    1_GWF-(1,11369)  1.10938774E-03                    1_GWF-(1,14799)
        339          7         39 -1.29715411E-02                    1_GWF-(1,11454) -1.10631658E-03                    1_GWF-(1,14799)
        340          7         40  1.00616333E-02                    1_GWF-(1,11451)  1.15758166E-03                    1_GWF-(1,14799)
        341          7         41 -1.25845476E-02                    1_GWF-(1,26666) -4.32012721E-04                    1_GWF-(1,14799)
        342          7         42 -1.26134818E-02                    1_GWF-(1,26665)  4.68075052E-04                    1_GWF-(1,10966)
        343          7         43 -1.01199329E-02                    1_GWF-(1,11453)  7.64828276E-04                    1_GWF-(1,14799)
        344          7         44  7.76517926E-03                    1_GWF-(1,26666) -1.04577053E-03                    1_GWF-(1,14799)
        345          7         45  9.94906194E-03                    1_GWF-(1,11408)  1.42672067E-03                    1_GWF-(1,14799)
        346          7         46  1.01873151E-02                    1_GWF-(1,11454) -1.37658147E-03                    1_GWF-(1,14799)
        347          7         47 -9.68932330E-03                    1_GWF-(1,11451)  1.53203208E-03                    1_GWF-(1,14799)
        348          7         48  8.57175933E-03                    1_GWF-(1,11458) -1.48966613E-03                    1_GWF-(1,14799)
        349          7         49 -1.04666440E-02                    1_GWF-(1,11458)  1.66509840E-03                    1_GWF-(1,14799)
        350          7         50 -8.36798291E-03                    1_GWF-(1,11451) -1.60400891E-03                    1_GWF-(1,14799)
        351          8          1  8.83297227E-03                    1_GWF-(1,11451)  1.86659036E-03                    1_GWF-(1,14799)
        352          8          2 -5.94055473E-03                    1_GWF-(1,16124) -1.42327849E-03                    1_GWF-(1,14799)
        353          8          3  4.98102188E-03                    1_GWF-(1,11409)  1.49293644E-03                    1_GWF-(1,14799)
        354          8          4 -7.79938733E-03                    1_GWF-(1,11436) -1.37804031E-03                    1_GWF-(1,14799)
        355          8          5 -6.90096298E-03                    1_GWF-(1,11451)  1.41573213E-03                    1_GWF-(1,14799)
        356          8          6 -5.92195303E-03                    1_GWF-(1,26665) -1.06421444E-03                    1_GWF-(1,14799)
        357          8          7 -6.82386522E-03                    1_GWF-(1,11436)  7.98066238E-04                    1_GWF-(1,14799)
        358          8          8  7.50074528E-03                    1_GWF-(1,11415)  2.91009936E-04                    1_GWF-(1,14801)
        359          8          9  8.35434320E-03                    1_GWF-(1,26665)  2.55225735E-04                    1_GWF-(1,14798)
        360          8         10  8.94982631E-03                    1_GWF-(1,26666)  8.27494114E-04                    1_GWF-(1,14799)
        361          8         11  9.15114363E-03                    1_GWF-(1,11415) -8.37623705E-04                    1_GWF-(1,14799)
        362          8         12 -7.73507818E-03                    1_GWF-(1,11415)  8.27693045E-04                    1_GWF-(1,14799)
        363          8         13  6.30996014E-03                    1_GWF-(1,11369) -4.38569397E-04                    1_GWF-(1,14799)
        364          8         14  8.26477548E-03                    1_GWF-(1,11415)  2.60797079E-04                    1_GWF-(1,14800)
        365          8         15 -8.31726443E-03                    1_GWF-(1,11415)  2.91945596E-04                    1_GWF-(1,14799)
        366          8         16  5.98282409E-03                    1_GWF-(1,11369) -4.92972681E-04                    1_GWF-(1,14799)
        367          8         17  7.24386234E-03                    1_GWF-(1,11415)  5.60764038E-04                    1_GWF-(1,14799)
        368          8         18 -7.89812281E-03                    1_GWF-(1,11415) -3.85248718E-04                    1_GWF-(1,14799)
        369          8         19  6.35504969E-03                    1_GWF-(1,11369)  4.06420311E-04                    1_GWF-(1,14800)
        370          8         20 -5.09274276E-03                    1_GWF-(1,26588)  3.92979085E-04                    1_GWF-(1,14801)
        371          8         21 -6.10037385E-03                    1_GWF-(1,26543)  1.34585628E-04                    1_GWF-(1,14800)
        372          8         22 -5.49895834E-03                    1_GWF-(1,26588)  3.17960594E-04                    1_GWF-(1,14799)
        373          8         23 -4.51712329E-03                    1_GWF-(1,11435)  3.93777250E-04                    1_GWF-(1,14801)
        374          8         24  5.84670028E-03                    1_GWF-(1,11453)  4.52522793E-04                    1_GWF-(1,14800)
        375          8         25  5.99967564E-03                    1_GWF-(1,11369)  5.89025153E-04                    1_GWF-(1,14801)
        376          8         26  6.00057021E-03                    1_GWF-(1,11452)  5.42661771E-04                    1_GWF-(1,14800)
        377          8         27  5.71896249E-03                    1_GWF-(1,26649)  4.92515685E-04                    1_GWF-(1,14801)
        378          8         28  7.09252394E-03                    1_GWF-(1,26622)  1.86283016E-04                    1_GWF-(1,14800)
        379          8         29  5.72712373E-03                    1_GWF-(1,26649)  1.55714492E-04                    1_GWF-(1,14800)
        380          8         30  4.70005861E-03                    1_GWF-(1,11453)  3.79021614E-04                    1_GWF-(1,14801)
        381          8         31  5.19137397E-03                    1_GWF-(1,11458)  3.81586265E-04                    1_GWF-(1,14800)
        382          8         32 -7.10112601E-03                    1_GWF-(1,11458)  4.55870171E-04                    1_GWF-(1,14801)
        383          8         33 -4.76014495E-03                    1_GWF-(1,11408)  3.52466007E-04                    1_GWF-(1,14800)
        384          8         34 -4.11972951E-03                    1_GWF-(1,11453)  3.70767751E-04                    1_GWF-(1,14801)
        385          8         35 -7.57533308E-03                    1_GWF-(1,11458)  2.56406482E-04                    1_GWF-(1,14800)
        386          8         36  5.06475611E-03                    1_GWF-(1,11458)  3.07099783E-04                    1_GWF-(1,14799)
        387          8         37  4.78288064E-03                    1_GWF-(1,11417)  1.68738610E-04                    1_GWF-(1,14798)
        388          8         38 -7.68250725E-03                    1_GWF-(1,11458)  1.92649683E-04                    1_GWF-(1,14799)
        389          8         39  7.19414375E-03                    1_GWF-(1,11458)  1.93981099E-04                    1_GWF-(1,14801)
        390          8         40  6.21783964E-03                    1_GWF-(1,11417)  2.59638188E-04                    1_GWF-(1,14800)
        391          8         41 -7.31754286E-03                    1_GWF-(1,11417)  3.94043090E-04                    1_GWF-(1,14801)
        392          8         42 -6.05121194E-03                    1_GWF-(1,11438)  3.88693620E-04                    1_GWF-(1,14800)
        393          8         43 -5.20800315E-03                    1_GWF-(1,11412)  4.32006657E-04                    1_GWF-(1,14801)
        394          8         44 -7.05413305E-03                    1_GWF-(1,11417)  3.63782070E-04                    1_GWF-(1,14800)
        395          8         45 -8.77065289E-03                    1_GWF-(1,11438)  3.99820643E-04                    1_GWF-(1,14801)
        396          8         46  9.75833498E-03                    1_GWF-(1,11438)  3.34233511E-04                    1_GWF-(1,14800)
        397          8         47 -5.71461722E-03                    1_GWF-(1,11415)  4.40306352E-04                    1_GWF-(1,14801)
        398          8         48 -8.18475764E-03                    1_GWF-(1,11438)  3.71107796E-04                    1_GWF-(1,14800)
        399          8         49  9.30365674E-03                    1_GWF-(1,11438)  1.86043670E-04                    1_GWF-(1,14801)
        400          8         50  4.27470969E-03                    1_GWF-(1,11369)  2.52372218E-04                    1_GWF-(1,14800)
        401          9          1 -6.12452520E-03                    1_GWF-(1,11438)  2.00319269E-04                    1_GWF-(1,14801)
        402          9          2 -4.38487085E-03                    1_GWF-(1,11413)  2.75074254E-04                    1_GWF-(1,14800)
        403          9          3  2.56318812E-03                    1_GWF-(1,11438)  3.52437868E-04                    1_GWF-(1,14801)
        404          9          4  3.26090351E-03                    1_GWF-(1,11415)  3.10949191E-04                    1_GWF-(1,14800)
        405          9          5 -2.13408800E-03                    1_GWF-(1,26544)  3.58342328E-04                    1_GWF-(1,14801)
        406          9          6 -3.31150099E-03                    1_GWF-(1,11423)  3.01412146E-04                    1_GWF-(1,14800)
        407          9          7  2.83724521E-03                    1_GWF-(1,11453)  3.41953496E-04                    1_GWF-(1,14801)
        408          9          8  2.26484373E-03                    1_GWF-(1,11413)  2.91547020E-04                    1_GWF-(1,14800)
        409          9          9 -1.53139263E-03                    1_GWF-(1,26350)  3.13036634E-04                    1_GWF-(1,14801)
        410          9         10  2.93487649E-03                    1_GWF-(1,11453)  2.16296413E-04                    1_GWF-(1,14800)
        411          9         11 -2.23082032E-03                    1_GWF-(1,11453)  1.73461181E-04                    1_GWF-(1,14801)
        412          9         12  2.49123807E-03                    1_GWF-(1,26350)  1.06754364E-04                    1_GWF-(1,14799)
        413          9         13  2.53875258E-03                    1_GWF-(1,26422)  1.05573545E-04                    1_GWF-(1,10966)
        414          9         14 -2.55196260E-03                    1_GWF-(1,26622)  1.22083983E-04                    1_GWF-(1,14801)
        415          9         15 -2.67074903E-03                    1_GWF-(1,26649)  1.09263960E-04                    1_GWF-(1,14800)
        416          9         16  2.11583866E-03                    1_GWF-(1,26422)  1.04491751E-04                    1_GWF-(1,10966)
        417          9         17  1.74936564E-03                    1_GWF-(1,26350)  1.56659414E-04                    1_GWF-(1,14799)
        418          9         18  1.97689296E-03                    1_GWF-(1,11438)  1.59597350E-04                    1_GWF-(1,10966)
        419          9         19 -2.23537149E-03                    1_GWF-(1,26422)  1.92193965E-04                    1_GWF-(1,14799)
        420          9         20 -2.36050195E-03                    1_GWF-(1,26420)  1.60594526E-04                    1_GWF-(1,14800)
        421          9         21 -2.67404018E-03                    1_GWF-(1,26487)  1.67189301E-04                    1_GWF-(1,14801)
        422          9         22 -2.50499608E-03                    1_GWF-(1,26420) -7.41356153E-05                    1_GWF-(1,10966)
        423          9         23  2.40739364E-03                    1_GWF-(1,26486)  1.08601698E-04                    1_GWF-(1,10966)
        424          9         24  2.52731007E-03                    1_GWF-(1,11438)  1.99951022E-04                    1_GWF-(1,14801)
        425          9         25 -2.01672968E-03                    1_GWF-(1,26544)  1.89567047E-04                    1_GWF-(1,14800)
        426          9         26 -2.86904778E-03                    1_GWF-(1,11438)  2.23029474E-04                    1_GWF-(1,14801)
        427          9         27  2.95651662E-03                    1_GWF-(1,11438) -1.89128420E-04                    1_GWF-(1,14801)
        428          9         28 -1.52201781E-03                    1_GWF-(1,11412)  1.71304407E-04                    1_GWF-(1,14801)
        429          9         29 -2.06892761E-03                    1_GWF-(1,11438) -9.56624558E-05                    1_GWF-(1,10966)
        430          9         30  2.38025147E-03                    1_GWF-(1,11438)  5.64820363E-05                    1_GWF-(1,14798)
        431          9         31  2.32003022E-03                    1_GWF-(1,26588)  1.32981461E-04                    1_GWF-(1,14801)
        432          9         32 -2.53595131E-03                    1_GWF-(1,11438)  1.67231717E-04                    1_GWF-(1,14800)
        433          9         33  2.11510887E-03                    1_GWF-(1,11438)  2.03997236E-04                    1_GWF-(1,14801)
        434          9         34 -1.20855999E-03                    1_GWF-(1,11415) -1.72466446E-04                    1_GWF-(1,14801)
        435          9         35  2.56693679E-03                    1_GWF-(1,11458)  1.78953695E-04                    1_GWF-(1,14801)
        436          9         36  2.65761543E-03                    1_GWF-(1,11438) -1.53757232E-04                    1_GWF-(1,10966)
        437          9         37 -2.35912511E-03                    1_GWF-(1,11415)  1.38952792E-04                    1_GWF-(1,10966)
        438          9         38 -1.90113321E-03                    1_GWF-(1,11438)  1.87349247E-04                    1_GWF-(1,14799)
        439          9         39 -3.26875017E-03                    1_GWF-(1,11458) -1.75554602E-04                    1_GWF-(1,14799)
        440          9         40  2.23380108E-03                    1_GWF-(1,11458)  1.96064903E-04                    1_GWF-(1,14799)
        441          9         41 -1.75092481E-03                    1_GWF-(1,26666) -1.08718860E-04                    1_GWF-(1,14799)
        442          9         42 -2.45073857E-03                    1_GWF-(1,11458)  5.26232463E-05                    1_GWF-(1,14799)
        443          9         43  1.58796547E-03                    1_GWF-(1,11458) -7.20966223E-05                    1_GWF-(1,10966)
        444          9         44  1.25594052E-03                    1_GWF-(1,26666) -1.19564558E-04                    1_GWF-(1,14799)
        445          9         45  1.77164895E-03                    1_GWF-(1,11438)  1.76596923E-04                    1_GWF-(1,14799)
        446          9         46 -1.71093122E-03                    1_GWF-(1,11453) -1.68778338E-04                    1_GWF-(1,14799)
        447          9         47  2.15973925E-03                    1_GWF-(1,11453)  2.16786496E-04                    1_GWF-(1,14799)
        448          9         48  1.38861100E-03                    1_GWF-(1,11438) -2.08850809E-04                    1_GWF-(1,14799)
        449          9         49 -1.70844568E-03                    1_GWF-(1,11438)  2.74656544E-04                    1_GWF-(1,14799)
        450          9         50  2.01016992E-03                    1_GWF-(1,11453) -2.32541827E-04                    1_GWF-(1,14799)
        451         10          1 -1.97782457E-03                    1_GWF-(1,11453)  3.10161351E-04                    1_GWF-(1,14799)
        452         10          2  9.33589024E-04                    1_GWF-(1,26666) -2.21219422E-04                    1_GWF-(1,14799)
        453         10          3  1.30560973E-03                    1_GWF-(1,11453)  2.19957959E-04                    1_GWF-(1,14799)
        454         10          4 -2.14621844E-03                    1_GWF-(1,11453) -1.78454264E-04                    1_GWF-(1,14799)
        455         10          5  1.54772725E-03                    1_GWF-(1,11453)  1.90881535E-04                    1_GWF-(1,14799)
        456         10          6 -1.07051750E-03                    1_GWF-(1,26665) -1.40521019E-04                    1_GWF-(1,14799)
        457         10          7 -1.25741436E-03                    1_GWF-(1,11453)  8.40581855E-05                    1_GWF-(1,14799)
        458         10          8  1.09256546E-03                    1_GWF-(1,11453)  3.39982408E-05                    1_GWF-(1,14801)
        459         10          9  1.27363998E-03                    1_GWF-(1,26665) -7.40185229E-05                    1_GWF-(1,14799)
        460         10         10  1.35593285E-03                    1_GWF-(1,11369)  1.45820094E-04                    1_GWF-(1,14799)
        461         10         11  9.33062951E-04                    1_GWF-(1,26665) -1.27517956E-04                    1_GWF-(1,14799)
        462         10         12 -1.08568446E-03                    1_GWF-(1,11438)  9.53566743E-05                    1_GWF-(1,14799)
[...]
        693         14         43  1.61921573E-05                    1_GWF-(1,11458)  1.62254744E-06                    1_GWF-(1,14801)
        694         14         44  2.11945269E-05                    1_GWF-(1,11438)  1.23230304E-06                    1_GWF-(1,14800)
        695         14         45 -1.62414614E-05                    1_GWF-(1,11438)  1.21327215E-06                    1_GWF-(1,14801)
        696         14         46  1.21393953E-05                    1_GWF-(1,11458)  7.85677632E-07                    1_GWF-(1,14800)
        697         14         47  1.70355387E-05                    1_GWF-(1,11438)  2.39468822E-07                    1_GWF-(1,14799)
        698         14         48 -1.39840770E-05                    1_GWF-(1,11417)  1.02537917E-06                    1_GWF-(1,14801)
        699         14         49 -1.39707461E-05                    1_GWF-(1,11438)  1.23310027E-06                    1_GWF-(1,14800)
        700         14         50  2.62979655E-05                    1_GWF-(1,11438)  1.41034983E-06                    1_GWF-(1,14801)
        701         15          1 -1.75175243E-05                    1_GWF-(1,11438) -1.48214570E-06                    1_GWF-(1,14801)
        702         15          2 -1.03530285E-05                    1_GWF-(1,11434)  1.12242508E-06                    1_GWF-(1,14801)
        703         15          3  1.79278522E-05                    1_GWF-(1,11438)  2.78090316E-07                    1_GWF-(1,14800)
        704         15          4 -1.04185676E-05                    1_GWF-(1,26649)  6.45154550E-07                    1_GWF-(1,14800)
        705         15          5 -1.01160107E-05                    1_GWF-(1,26622)  1.09446727E-06                    1_GWF-(1,14801)
        706         15          6  1.60742605E-05                    1_GWF-(1,11438)  1.14775767E-06                    1_GWF-(1,14800)
        707         15          7 -8.47480059E-06                    1_GWF-(1,11438)  1.36296177E-06                    1_GWF-(1,14801)
        708         15          8 -1.05887004E-05                    1_GWF-(1,11417)  1.04776906E-06                    1_GWF-(1,14800)
        709         15          9  1.15560952E-05                    1_GWF-(1,11438)  9.82234781E-07                    1_GWF-(1,14801)
        710         15         10  9.36156523E-06                    1_GWF-(1,11458)  4.70095309E-07                    1_GWF-(1,14800)
        711         15         11 -9.08807133E-06                    1_GWF-(1,11417)  2.82893690E-07                    1_GWF-(1,14800)
        712         15         12  9.39234260E-06                    1_GWF-(1,26486)  7.49940145E-07                    1_GWF-(1,14801)
        713         15         13  9.02951831E-06                    1_GWF-(1,11417)  7.24121925E-07                    1_GWF-(1,14800)
        714         15         14  8.23565846E-06                    1_GWF-(1,26486)  6.63788771E-07                    1_GWF-(1,14801)
        715         15         15  8.62627969E-06                    1_GWF-(1,26350)  4.21778908E-07                    1_GWF-(1,14800)
        716         15         16  9.12702901E-06                    1_GWF-(1,26422)  3.15275134E-07                    1_GWF-(1,14798)
        717         15         17  6.25813074E-06                    1_GWF-(1,26487)  5.42071304E-07                    1_GWF-(1,14799)
        718         15         18  6.99561850E-06                    1_GWF-(1,11409)  3.83581826E-07                    1_GWF-(1,14798)
        719         15         19  7.69300178E-06                    1_GWF-(1,11458)  6.09086028E-07                    1_GWF-(1,14801)
        720         15         20 -9.31098952E-06                    1_GWF-(1,26487)  5.21497867E-07                    1_GWF-(1,14800)
        721         15         21 -8.68656055E-06                    1_GWF-(1,26420)  2.86703811E-07                    1_GWF-(1,14801)
        722         15         22 -1.00222534E-05                    1_GWF-(1,26422)  5.40496300E-07                    1_GWF-(1,14799)
        723         15         23 -1.14819544E-05                    1_GWF-(1,26350) -5.81982878E-07                    1_GWF-(1,14799)
        724         15         24 -8.08667182E-06                    1_GWF-(1,26422)  7.95537511E-07                    1_GWF-(1,14799)
        725         15         25 -9.40133564E-06                    1_GWF-(1,11453) -7.27638866E-07                    1_GWF-(1,14801)
        726         15         26  1.13276095E-05                    1_GWF-(1,11453)  8.34196055E-07                    1_GWF-(1,14801)
        727         15         27  5.63333441E-06                    1_GWF-(1,26665)  4.84659922E-07                    1_GWF-(1,14800)
        728         15         28 -5.50920961E-06                    1_GWF-(1,11453)  2.24620731E-07                    1_GWF-(1,14801)
        729         15         29  9.31649532E-06                    1_GWF-(1,11453)  4.25105456E-07                    1_GWF-(1,14799)
        730         15         30  6.81595777E-06                    1_GWF-(1,26666) -3.73584856E-07                    1_GWF-(1,14799)
        731         15         31  5.96053898E-06                    1_GWF-(1,11369)  5.14936082E-07                    1_GWF-(1,14801)
        732         15         32  9.27265794E-06                    1_GWF-(1,11453)  4.80607833E-07                    1_GWF-(1,14800)
        733         15         33  5.92000786E-06                    1_GWF-(1,26420)  4.05736328E-07                    1_GWF-(1,14801)
        734         15         34  7.02964441E-06                    1_GWF-(1,26487)  2.98868718E-07                    1_GWF-(1,14799)
        735         15         35  6.55449513E-06                    1_GWF-(1,26486)  2.66196995E-07                    1_GWF-(1,14800)
        736         15         36 -6.30548594E-06                    1_GWF-(1,26486)  4.94007718E-07                    1_GWF-(1,14801)
        737         15         37  7.88787792E-06                    1_GWF-(1,11369) -5.27139644E-07                    1_GWF-(1,14801)
        738         15         38 -8.07625870E-06                    1_GWF-(1,11369)  6.42993187E-07                    1_GWF-(1,14801)
        739         15         39 -5.89520124E-06                    1_GWF-(1,11438)  5.17474803E-07                    1_GWF-(1,14800)
        740         15         40  4.92183377E-06                    1_GWF-(1,11369)  3.55862889E-07                    1_GWF-(1,14801)
        741         15         41 -6.32398092E-06                    1_GWF-(1,11369)  3.30605933E-07                    1_GWF-(1,14799)
        742         15         42  5.68106841E-06                    1_GWF-(1,26623)  2.31925503E-07                    1_GWF-(1,14800)
        743         15         43  5.62482981E-06                    1_GWF-(1,26622)  3.71368730E-07                    1_GWF-(1,14801)
        744         15         44  5.94435708E-06                    1_GWF-(1,11438)  3.68936696E-07                    1_GWF-(1,14799)
        745         15         45 -4.27777888E-06                    1_GWF-(1,11454) -4.26562982E-07                    1_GWF-(1,14799)
        746         15         46 -5.72875463E-06                    1_GWF-(1,11453)  6.22545260E-07                    1_GWF-(1,14799)
        747         15         47  4.53725718E-06                    1_GWF-(1,11453) -6.42205559E-07                    1_GWF-(1,14799)
        748         15         48  4.34281220E-06                    1_GWF-(1,11458)  8.01520007E-07                    1_GWF-(1,14799)
        749         15         49 -4.25430942E-06                    1_GWF-(1,11453) -9.82246125E-07                    1_GWF-(1,14799)
        750         15         50  4.85244623E-06                    1_GWF-(1,11453)  7.39226605E-07                    1_GWF-(1,14799)
        751         16          1  5.30127264E-06                    1_GWF-(1,11458) -1.25968833E-06                    1_GWF-(1,14799)
        752         16          2  3.45373924E-06                    1_GWF-(1,26666)  7.16535490E-07                    1_GWF-(1,14799)
        753         16          3 -4.49038496E-06                    1_GWF-(1,11458) -2.32667772E-07                    1_GWF-(1,14799)
        754         16          4  5.46699335E-06                    1_GWF-(1,11458) -2.33936975E-07                    1_GWF-(1,14799)
        755         16          5 -2.62353085E-06                    1_GWF-(1,26420)  7.95551867E-07                    1_GWF-(1,14799)
        756         16          6  5.58154638E-06                    1_GWF-(1,11438) -9.52355532E-07                    1_GWF-(1,14799)
        757         16          7 -5.05773422E-06                    1_GWF-(1,11438)  6.90503965E-07                    1_GWF-(1,14799)
        758         16          8 -2.75264286E-06                    1_GWF-(1,26623) -2.89564800E-07                    1_GWF-(1,14799)
        759         16          9  6.07313045E-06                    1_GWF-(1,11438)  7.86691856E-08                    1_GWF-(1,14798)
        760         16         10 -4.71691085E-06                    1_GWF-(1,26588)  4.54342837E-07                    1_GWF-(1,14799)
        761         16         11 -4.08495054E-06                    1_GWF-(1,11438) -4.85301649E-07                    1_GWF-(1,14799)
        762         16         12  7.73228251E-06                    1_GWF-(1,11438)  4.62714288E-07                    1_GWF-(1,14799)
        763         16         13 -4.34546217E-06                    1_GWF-(1,11438)  2.83910391E-07                    1_GWF-(1,14798)
        764         16         14  2.41423427E-06                    1_GWF-(1,11458)  2.51039014E-07                    1_GWF-(1,14799)
        765         16         15  4.84991908E-06                    1_GWF-(1,11438)  2.39541788E-07                    1_GWF-(1,14801)
        766         16         16 -3.71446364E-06                    1_GWF-(1,11438)  1.14762954E-07                    1_GWF-(1,14800)
        767         16         17 -3.26751009E-06                    1_GWF-(1,26486)  1.92065426E-07                    1_GWF-(1,14799)
        768         16         18  3.78359501E-06                    1_GWF-(1,11438)  1.63929626E-07                    1_GWF-(1,14801)
        769         16         19  2.96024919E-06                    1_GWF-(1,11369)  2.19670571E-07                    1_GWF-(1,14800)
        770         16         20  2.46450141E-06                    1_GWF-(1,11458)  2.56441020E-07                    1_GWF-(1,14801)
        771         16         21  3.18225944E-06                    1_GWF-(1,11453)  1.59809052E-07                    1_GWF-(1,14800)
        772         16         22  2.88653857E-06                    1_GWF-(1,11369)  1.47196787E-07                    1_GWF-(1,14799)
        773         16         23  2.03928283E-06                    1_GWF-(1,26665)  1.38772137E-07                    1_GWF-(1,14798)
        774         16         24  3.03358230E-06                    1_GWF-(1,11453)  1.67795502E-07                    1_GWF-(1,14800)
        775         16         25 -3.54978377E-06                    1_GWF-(1,11453)  2.42916910E-07                    1_GWF-(1,14801)
        776         16         26 -2.04455792E-06                    1_GWF-(1,11423)  2.55118663E-07                    1_GWF-(1,14800)
        777         16         27  2.65204392E-06                    1_GWF-(1,11453)  3.11523763E-07                    1_GWF-(1,14801)
        778         16         28 -4.10838493E-06                    1_GWF-(1,11453)  2.44818913E-07                    1_GWF-(1,14800)
        779         16         29  2.68719673E-06                    1_GWF-(1,11453)  2.51894391E-07                    1_GWF-(1,14801)
        780         16         30  2.02177467E-06                    1_GWF-(1,26487)  1.90899666E-07                    1_GWF-(1,14800)
        781         16         31 -2.38876585E-06                    1_GWF-(1,11453)  1.51622666E-07                    1_GWF-(1,14799)
        782         16         32  1.90383552E-06                    1_GWF-(1,26487)  5.15196910E-08                    1_GWF-(1,14798)
        783         16         33 -1.69204085E-06                    1_GWF-(1,26487)  1.11869119E-07                    1_GWF-(1,14800)
        784         16         34 -2.12275380E-06                    1_GWF-(1,26486)  1.70953631E-07                    1_GWF-(1,14801)
        785         16         35 -1.58403614E-06                    1_GWF-(1,26487)  1.31912907E-07                    1_GWF-(1,14800)
        786         16         36 -2.07696808E-06                    1_GWF-(1,26422)  1.61418967E-07                    1_GWF-(1,14799)
        787         16         37 -2.08114671E-06                    1_GWF-(1,26350)  8.77885367E-08                    1_GWF-(1,14798)
        788         16         38 -1.96190239E-06                    1_GWF-(1,26422)  9.40156539E-08                    1_GWF-(1,14799)
        789         16         39 -1.46460115E-06                    1_GWF-(1,26350)  7.87652603E-08                    1_GWF-(1,14801)
        790         16         40  1.54782797E-06                    1_GWF-(1,11417)  9.81948137E-08                    1_GWF-(1,14800)
        791         16         41 -1.60757899E-06                    1_GWF-(1,26588)  1.09302544E-07                    1_GWF-(1,14799)
        792         16         42 -1.38722169E-06                    1_GWF-(1,11417)  6.99779798E-08                    1_GWF-(1,14798)
        793         16         43  1.27349916E-06                    1_GWF-(1,11369)  6.46802969E-08                    1_GWF-(1,14799)
        794         16         44  1.36491200E-06                    1_GWF-(1,11438)  9.01695252E-08                    1_GWF-(1,14801)
        795         16         45  1.39927921E-06                    1_GWF-(1,11412)  1.04447936E-07                    1_GWF-(1,14800)
        796         16         46  1.55953510E-06                    1_GWF-(1,26486)  1.15012881E-07                    1_GWF-(1,14801)
        797         16         47  1.44725255E-06                    1_GWF-(1,11438)  4.70766651E-08                    1_GWF-(1,14800)
        798         16         48 -1.47782174E-06                    1_GWF-(1,11434)  6.13961924E-08                    1_GWF-(1,14800)
        799         16         49 -1.31166128E-06                    1_GWF-(1,11438)  1.05202966E-07                    1_GWF-(1,14801)
        800         16         50  1.97008624E-06                    1_GWF-(1,11438)  1.06141446E-07                    1_GWF-(1,14800)
        801         17          1 -1.40401186E-06                    1_GWF-(1,11438)  2.27093523E-07                    1_GWF-(1,14801)
        802         17          2 -1.28636548E-06                    1_GWF-(1,26588)  1.42726282E-07                    1_GWF-(1,14800)
        803         17          3  1.54438216E-06                    1_GWF-(1,11438)  6.84966864E-08                    1_GWF-(1,14801)
        804         17          4  1.18998959E-06                    1_GWF-(1,11412)  7.57165969E-08                    1_GWF-(1,14801)
        805         17          5 -1.43977559E-06                    1_GWF-(1,26486)  1.26623558E-07                    1_GWF-(1,14800)
        806         17          6  1.13425616E-06                    1_GWF-(1,11438)  1.40903210E-07                    1_GWF-(1,14801)
        807         17          7  1.06647803E-06                    1_GWF-(1,11458)  7.46595417E-08                    1_GWF-(1,14800)
        808         17          8 -7.98042026E-07                    1_GWF-(1,26487)  3.36749343E-08                    1_GWF-(1,14798)
        809         18          1  8.30657218E-07                    1_GWF-(1,11438)  3.88228762E-08                    1_GWF-(1,14799)
 --------------------------------------------------------------------------------------------------------------------------------------


 UBDSV1 SAVING     FLOW-JA-FACE ON UNIT   1020 AT TIME STEP      1, STRESS PERIOD      1
 UBDSV06 SAVING       DATA-SPDIS IN MODEL ML               PACKAGE NPF             CONNECTED TO MODEL ML               PACKAGE NPF              ON UNIT   1020 AT TIME STEP      1, STRESS PERIOD      1
 UBDSV06 SAVING              WEL IN MODEL ML               PACKAGE ML              CONNECTED TO MODEL ML               PACKAGE WEL_0            ON UNIT   1020 AT TIME STEP      1, STRESS PERIOD      1
 UBDSV06 SAVING              DRN IN MODEL ML               PACKAGE ML              CONNECTED TO MODEL ML               PACKAGE DRN_0            ON UNIT   1020 AT TIME STEP      1, STRESS PERIOD      1
 UBDSV06 SAVING              RIV IN MODEL ML               PACKAGE ML              CONNECTED TO MODEL ML               PACKAGE RIV_0            ON UNIT   1020 AT TIME STEP      1, STRESS PERIOD      1
 UBDSV06 SAVING              GHB IN MODEL ML               PACKAGE ML              CONNECTED TO MODEL ML               PACKAGE GHB_0            ON UNIT   1020 AT TIME STEP      1, STRESS PERIOD      1
 UBDSV06 SAVING              RCH IN MODEL ML               PACKAGE ML              CONNECTED TO MODEL ML               PACKAGE RCHA_0           ON UNIT   1020 AT TIME STEP      1, STRESS PERIOD      1

 HEAD WILL BE SAVED ON UNIT 1021 AT END OF TIME STEP    1, STRESS PERIOD    1


  VOLUME BUDGET FOR ENTIRE MODEL AT END OF TIME STEP    1, STRESS PERIOD   1
  ---------------------------------------------------------------------------------------------------

     CUMULATIVE VOLUME      L**3       RATES FOR THIS TIME STEP      L**3/T          PACKAGE NAME    
     ------------------                 ------------------------                     ----------------

           IN:                                      IN:
           ---                                      ---
                 WEL =           0.0000                   WEL =           0.0000     WEL_0           
                 DRN =           0.0000                   DRN =           0.0000     DRN_0           
                 RIV =           9.2933                   RIV =           1.1617     RIV_0           
                 GHB =          10.7732                   GHB =           1.3467     GHB_0           
                 RCH =           6.6109                   RCH =           0.8264     RCHA_0          

            TOTAL IN =          26.6774              TOTAL IN =           3.3347

          OUT:                                     OUT:
          ----                                     ----
                 WEL =           1.3838                   WEL =           0.1730     WEL_0           
                 DRN =           1.4191                   DRN =           0.1774     DRN_0           
                 RIV =          22.7301                   RIV =           2.8413     RIV_0           
                 GHB =           1.1444                   GHB =           0.1431     GHB_0           
                 RCH =           0.0000                   RCH =           0.0000     RCHA_0          

           TOTAL OUT =          26.6774             TOTAL OUT =           3.3347

            IN - OUT =      -1.0740E-05              IN - OUT =      -1.3424E-06

 PERCENT DISCREPANCY =          -0.00     PERCENT DISCREPANCY =          -0.00




         TIME SUMMARY AT END OF TIME STEP    1 IN STRESS PERIOD    1
                    SECONDS     MINUTES      HOURS       DAYS        YEARS
                    -----------------------------------------------------------
   TIME STEP LENGTH  8.0000     0.13333     2.22222E-03 9.25926E-05 2.53505E-07
 STRESS PERIOD TIME  8.0000     0.13333     2.22222E-03 9.25926E-05 2.53505E-07
         TOTAL TIME  8.0000     0.13333     2.22222E-03 9.25926E-05 2.53505E-07


end timestep

