                                   MODFLOW 6
                U.S. GEOLOGICAL SURVEY MODULAR HYDROLOGIC MODEL
                          GROUNDWATER FLOW MODEL (GWF)
                            VERSION 6.2.2 07/30/2021

   MODFLOW 6 compiled Jul 31 2021 14:22:53 with IFORT compiler (ver. 19.10.3)

This software has been approved for release by the U.S. Geological 
Survey (USGS). Although the software has been subjected to rigorous 
review, the USGS reserves the right to update the software as needed 
pursuant to further analysis and review. No warranty, expressed or 
implied, is made by the USGS or the U.S. Government as to the 
functionality of the software and related material nor shall the 
fact of release constitute any such warranty. Furthermore, the 
software is released on condition that neither the USGS nor the U.S. 
Government shall be held liable for any damages resulting from its 
authorized or unauthorized use. Also refer to the USGS Water 
Resources Software User Rights Notice for complete use, copyright, 
and distribution information.


System command used to initiate simulation:
mf6

MODFLOW was compiled using uniform precision.

Real Variables
  KIND: 8
  TINY (smallest non-zero value):    2.225074-308
  HUGE (largest value):    1.797693+308
  PRECISION: 15
  BIT SIZE: 64

Integer Variables
  KIND: 4
  HUGE (largest value): 2147483647
  BIT SIZE: 32

Long Integer Variables
  KIND: 8
  HUGE (largest value): 9223372036854775807
  BIT SIZE: 64

Logical Variables
  KIND: 4
  BIT SIZE: 32
 

 OPENED ./ml.disv
 FILE TYPE:DISV6                  UNIT 1005   STATUS:OLD                 
 FORMAT:FORMATTED              ACCESS:SEQUENTIAL          
 ACTION:READ                


 OPENED ./ml.ic
 FILE TYPE:IC6                    UNIT 1006   STATUS:OLD                 
 FORMAT:FORMATTED              ACCESS:SEQUENTIAL          
 ACTION:READ                


 OPENED ./ml.npf
 FILE TYPE:NPF6                   UNIT 1007   STATUS:OLD                 
 FORMAT:FORMATTED              ACCESS:SEQUENTIAL          
 ACTION:READ                


 OPENED ./ml.ghb
 FILE TYPE:GHB6                   UNIT 1008   STATUS:OLD                 
 FORMAT:FORMATTED              ACCESS:SEQUENTIAL          
 ACTION:READ                


 OPENED ./ml.rcha
 FILE TYPE:RCH6                   UNIT 1009   STATUS:OLD                 
 FORMAT:FORMATTED              ACCESS:SEQUENTIAL          
 ACTION:READ                


 OPENED ./ml.obs
 FILE TYPE:OBS6                   UNIT 1010   STATUS:OLD                 
 FORMAT:FORMATTED              ACCESS:SEQUENTIAL          
 ACTION:READ                


 OPENED ./ml.oc
 FILE TYPE:OC6                    UNIT 1011   STATUS:OLD                 
 FORMAT:FORMATTED              ACCESS:SEQUENTIAL          
 ACTION:READ                


 OPENED ml.wel
 FILE TYPE:WEL6                   UNIT 1012   STATUS:OLD                 
 FORMAT:FORMATTED              ACCESS:SEQUENTIAL          
 ACTION:READ                


 OPENED ml.drn
 FILE TYPE:DRN6                   UNIT 1013   STATUS:OLD                 
 FORMAT:FORMATTED              ACCESS:SEQUENTIAL          
 ACTION:READ                


 OPENED ml.riv
 FILE TYPE:RIV6                   UNIT 1014   STATUS:OLD                 
 FORMAT:FORMATTED              ACCESS:SEQUENTIAL          
 ACTION:READ                


 DISV -- VERTEX GRID DISCRETIZATION PACKAGE, VERSION 1 : 12/23/2015 - INPUT READ FROM UNIT 1005


 # File generated by Flopy version 3.3.5 on 05/30/2022 at 17:40:59.

 PROCESSING DISCRETIZATION OPTIONS
    MODEL LENGTH UNIT IS METERS
    XORIGIN SPECIFIED AS     405575.681000000    
    YORIGIN SPECIFIED AS     6423306.54000000    
 END OF DISCRETIZATION OPTIONS

 PROCESSING DISCRETIZATION DIMENSIONS
   NLAY = 1
   NCPL = 26674
   NVERT = 27090
 END OF DISCRETIZATION DIMENSIONS

 PROCESSING GRIDDATA
 END PROCESSING GRIDDATA

 PROCESSING VERTICES
   SUCCESSFULLY READ 27090 (X,Y) COORDINATES
   MINIMUM X COORDINATE =     405575.681000000    
   MAXIMUM X COORDINATE =     413975.681000000    
   MINIMUM Y COORDINATE =     6423306.54000000    
   MAXIMUM Y COORDINATE =     6432506.54000000    
 END PROCESSING VERTICES

 PROCESSING CELL2D
   SUCCESSFULLY READ 26674 CELL2D INFORMATION ENTRIES
   MINIMUM X CELL CENTER =     405675.681000000    
   MAXIMUM X CELL CENTER =     413875.681000000    
   MINIMUM Y CELL CENTER =     6423406.54000000    
   MAXIMUM Y CELL CENTER =     6432406.54000000    
   MAXIMUM NUMBER OF CELL2D VERTICES IS 6 FOR CELL 208
 END PROCESSING VERTICES

 NPF -- NODE PROPERTY FLOW PACKAGE, VERSION 1, 3/30/2015 INPUT READ FROM UNIT 1007


 # File generated by Flopy version 3.3.5 on 05/30/2022 at 17:41:02.
 PROCESSING NPF OPTIONS
    CELL-BY-CELL FLOW INFORMATION WILL BE SAVED TO BINARY FILE WHENEVER ICBCFL IS NOT ZERO.
    SPECIFIC DISCHARGE WILL BE CALCULATED AT CELL CENTERS AND WRITTEN TO DATA-SPDIS IN BUDGET FILE WHEN REQUESTED.
 END OF NPF OPTIONS

 WEL   -- WEL PACKAGE, VERSION 8, 2/22/2014 INPUT READ FROM UNIT 1012
 # File generated by Flopy version 3.3.5 on 05/30/2022 at 17:41:02.

 PROCESSING WEL OPTIONS
    WEL BOUNDARIES HAVE NAMES IN LAST COLUMN.
    FLOWS WILL BE SAVED TO BUDGET FILE SPECIFIED IN OUTPUT CONTROL
 END OF WEL OPTIONS

 PROCESSING WEL DIMENSIONS
    MAXBOUND =       9
 END OF WEL DIMENSIONS

 DRN   -- DRN PACKAGE, VERSION 8, 2/22/2014 INPUT READ FROM UNIT 1013
 # File generated by Flopy version 3.3.5 on 05/30/2022 at 17:41:02.

 PROCESSING DRN OPTIONS
    DRN BOUNDARIES HAVE NAMES IN LAST COLUMN.
    FLOWS WILL BE SAVED TO BUDGET FILE SPECIFIED IN OUTPUT CONTROL

 OPENED ml.drn.obs
 FILE TYPE:OBS   UNIT 1016   STATUS:OLD                 
 FORMAT:FORMATTED              ACCESS:SEQUENTIAL          
 ACTION:READ                

 END OF DRN OPTIONS

 PROCESSING DRN DIMENSIONS
    MAXBOUND =     133
 END OF DRN DIMENSIONS

 RIV   -- RIV PACKAGE, VERSION 8, 2/22/2014 INPUT READ FROM UNIT 1014
 # File generated by Flopy version 3.3.5 on 05/30/2022 at 17:41:02.

 PROCESSING RIV OPTIONS
    AUXILIARY RIV VARIABLE: FID             
    RIV BOUNDARIES HAVE NAMES IN LAST COLUMN.
    FLOWS WILL BE SAVED TO BUDGET FILE SPECIFIED IN OUTPUT CONTROL
 END OF RIV OPTIONS

 PROCESSING RIV DIMENSIONS
    MAXBOUND =     794
 END OF RIV DIMENSIONS

 GHB   -- GHB PACKAGE, VERSION 8, 2/22/2014 INPUT READ FROM UNIT 1008
 # File generated by Flopy version 3.3.5 on 05/30/2022 at 17:41:02.

 PROCESSING GHB OPTIONS
    GHB BOUNDARIES HAVE NAMES IN LAST COLUMN.
    FLOWS WILL BE SAVED TO BUDGET FILE SPECIFIED IN OUTPUT CONTROL
 END OF GHB OPTIONS

 PROCESSING GHB DIMENSIONS
    MAXBOUND =     153
 END OF GHB DIMENSIONS

 RCH   -- RCH PACKAGE, VERSION 8, 2/22/2014 INPUT READ FROM UNIT 1009
 # File generated by Flopy version 3.3.5 on 05/30/2022 at 17:41:02.

 PROCESSING RCH OPTIONS
    RECHARGE INPUT WILL BE READ AS ARRAY(S).
    FLOWS WILL BE SAVED TO BUDGET FILE SPECIFIED IN OUTPUT CONTROL
 END OF RCH OPTIONS

 IC -- INITIAL CONDITIONS PACKAGE, VERSION 8, 3/28/2015 INPUT READ FROM UNIT 1006
 # File generated by Flopy version 3.3.5 on 05/30/2022 at 17:41:02.
 PROCESSING GRIDDATA

     INITIAL HEAD =   15.00000    
 END PROCESSING GRIDDATA
 PROCESSING GRIDDATA

                ICELLTYPE = 0

 OPENED ../com_ext/k.txt
 FILE TYPE:OPEN/CLOSE   UNIT 1017   STATUS:OLD                 
 FORMAT:FORMATTED              ACCESS:SEQUENTIAL          
 ACTION:READ                

 K33 not provided.  Assuming K33 = K.
 K22 not provided.  Assuming K22 = K.
 END PROCESSING GRIDDATA

The observation utility is active for "ML"
 # File generated by Flopy version 3.3.5 on 05/30/2022 at 17:41:02.

Processing observation options:

Text output number of digits of precision set to: 10
The PRINT_INPUT option has been specified.


 OBSERVATIONS READ FROM FILE "ml.obs"
 ----------------------------------------------------------------------------------------------------------------------------------------------------------------------------------------------------------------------------
 NAME                                     TYPE                                       TIME         LOCATION DATA                              OUTPUT FILENAME                                                                 
 ----------------------------------------------------------------------------------------------------------------------------------------------------------------------------------------------------------------------------
 PRG                                      CONTINUOUS  HEAD                           ALL TIMES    "1 16523"                                  sim/hds.csv                                                                     
 P8                                       CONTINUOUS  HEAD                           ALL TIMES    "1 10323"                                  sim/hds.csv                                                                     
 P24                                      CONTINUOUS  HEAD                           ALL TIMES    "1 9594"                                   sim/hds.csv                                                                     
 P25                                      CONTINUOUS  HEAD                           ALL TIMES    "1 13966"                                  sim/hds.csv                                                                     
 P32                                      CONTINUOUS  HEAD                           ALL TIMES    "1 15787"                                  sim/hds.csv                                                                     
 P33                                      CONTINUOUS  HEAD                           ALL TIMES    "1 15825"                                  sim/hds.csv                                                                     
 PF                                       CONTINUOUS  HEAD                           ALL TIMES    "1 21048"                                  sim/hds.csv                                                                     
 PH                                       CONTINUOUS  HEAD                           ALL TIMES    "1 20781"                                  sim/hds.csv                                                                     
 PZHM1                                    CONTINUOUS  HEAD                           ALL TIMES    "1 14521"                                  sim/hds.csv                                                                     
 P26                                      CONTINUOUS  HEAD                           ALL TIMES    "1 13141"                                  sim/hds.csv                                                                     
 P27                                      CONTINUOUS  HEAD                           ALL TIMES    "1 8465"                                   sim/hds.csv                                                                     
 P28                                      CONTINUOUS  HEAD                           ALL TIMES    "1 8924"                                   sim/hds.csv                                                                     
 P29                                      CONTINUOUS  HEAD                           ALL TIMES    "1 4524"                                   sim/hds.csv                                                                     
 P30                                      CONTINUOUS  HEAD                           ALL TIMES    "1 5255"                                   sim/hds.csv                                                                     
 R20                                      CONTINUOUS  HEAD                           ALL TIMES    "1 10676"                                  sim/hds.csv                                                                     
 R21                                      CONTINUOUS  HEAD                           ALL TIMES    "1 10403"                                  sim/hds.csv                                                                     
 P34                                      CONTINUOUS  HEAD                           ALL TIMES    "1 15131"                                  sim/hds.csv                                                                     
 P37                                      CONTINUOUS  HEAD                           ALL TIMES    "1 15755"                                  sim/hds.csv                                                                     
 P38                                      CONTINUOUS  HEAD                           ALL TIMES    "1 15045"                                  sim/hds.csv                                                                     
 P39                                      CONTINUOUS  HEAD                           ALL TIMES    "1 9637"                                   sim/hds.csv                                                                     
 P40                                      CONTINUOUS  HEAD                           ALL TIMES    "1 9312"                                   sim/hds.csv                                                                     
 AP1                                      CONTINUOUS  HEAD                           ALL TIMES    "1 9702"                                   sim/hds.csv                                                                     
 RCK1                                     CONTINUOUS  HEAD                           ALL TIMES    "1 15900"                                  sim/hds.csv                                                                     
 RCK2                                     CONTINUOUS  HEAD                           ALL TIMES    "1 15199"                                  sim/hds.csv                                                                     
 P23                                      CONTINUOUS  HEAD                           ALL TIMES    "1 6409"                                   sim/hds.csv                                                                     
 ----------------------------------------------------------------------------------------------------------------------------------------------------------------------------------------------------------------------------


    BINARY GRID INFORMATION WILL BE WRITTEN TO:
      UNIT NUMBER: 1019
      FILE NAME: /srv/common/ptrack/case_study/pst/ml_08/./ml.disv.grb

 OPENED /srv/common/ptrack/case_study/pst/ml_08/./ml.disv.grb
 FILE TYPE:DATA(BINARY)   UNIT 1019   STATUS:REPLACE             
 FORMAT:UNFORMATTED            ACCESS:STREAM              
 ACTION:READWRITE           

      THE LAST TIME STEP WILL BE PRINTED
      THE LAST TIME STEP WILL BE PRINTED
 # File generated by Flopy version 3.3.5 on 05/30/2022 at 17:41:02.

 PROCESSING OC OPTIONS

    BUDGET INFORMATION WILL BE WRITTEN TO:
      UNIT NUMBER: 1020
      FILE NAME: ml.cbc

 OPENED ml.cbc
 FILE TYPE:DATA(BINARY)   UNIT 1020   STATUS:REPLACE             
 FORMAT:UNFORMATTED            ACCESS:STREAM              
 ACTION:READWRITE           

    HEAD INFORMATION WILL BE WRITTEN TO:
      UNIT NUMBER: 1021
      FILE NAME: ml.hds

 OPENED ml.hds
 FILE TYPE:DATA(BINARY)   UNIT 1021   STATUS:REPLACE             
 FORMAT:UNFORMATTED            ACCESS:STREAM              
 ACTION:READWRITE           

 END OF OC OPTIONS

The observation utility is active for "DRN_0"
 # File generated by Flopy version 3.3.5 on 05/30/2022 at 17:41:02.

Processing observation options:



start timestep kper="1" kstp="1" mode="normal"


 BEGIN READING OUTPUT CONTROL FOR STRESS PERIOD 1
      THE LAST TIME STEP WILL BE SAVED
      THE LAST TIME STEP WILL BE SAVED

 END READING OUTPUT CONTROL FOR STRESS PERIOD 1

 OPENED ext/wel_spd_1.txt
 FILE TYPE:OPEN/CLOSE   UNIT 1023   STATUS:OLD                 
 FORMAT:FORMATTED              ACCESS:SEQUENTIAL          
 ACTION:READ                


 OPENED ext/drn_spd_1.txt
 FILE TYPE:OPEN/CLOSE   UNIT 1024   STATUS:OLD                 
 FORMAT:FORMATTED              ACCESS:SEQUENTIAL          
 ACTION:READ                


 OPENED ext/riv_spd_1.txt
 FILE TYPE:OPEN/CLOSE   UNIT 1025   STATUS:OLD                 
 FORMAT:FORMATTED              ACCESS:SEQUENTIAL          
 ACTION:READ                


 OPENED ../com_ext/ghb_spd_1.txt
 FILE TYPE:OPEN/CLOSE   UNIT 1026   STATUS:OLD                 
 FORMAT:FORMATTED              ACCESS:SEQUENTIAL          
 ACTION:READ                


 OPENED ../com_ext/rech_spd_1.txt
 FILE TYPE:OPEN/CLOSE   UNIT 1027   STATUS:OLD                 
 FORMAT:FORMATTED              ACCESS:SEQUENTIAL          
 ACTION:READ                


 SLN_1 INNER ITERATION SUMMARY
 --------------------------------------------------------------------------------------------------------------------------------------
      TOTAL      OUTER      INNER                                                            MAXIMUM                                   
  ITERATION  ITERATION  ITERATION  MAXIMUM CHANGE      MAXIMUM CHANGE MODEL-(CELLID)        RESIDUAL    MAXIMUM RESIDUAL MODEL-(CELLID)
 --------------------------------------------------------------------------------------------------------------------------------------
          1          1          1       14.922162                    1_GWF-(1,26517)      0.58574502                    1_GWF-(1,11179)
          2          1          2       16.728501                    1_GWF-(1,26516)     -0.40793474                    1_GWF-(1,11179)
          3          1          3       20.974082                    1_GWF-(1,26563)     -0.33714253                    1_GWF-(1,11161)
          4          1          4       21.054711                    1_GWF-(1,26513)      0.33563914                    1_GWF-(1,11178)
          5          1          5       16.324359                    1_GWF-(1,26647)     -0.28040706                    1_GWF-(1,11208)
          6          1          6       20.163132                    1_GWF-(1,26649)     -0.30561272                    1_GWF-(1,11207)
          7          1          7       17.400224                    1_GWF-(1,26622)      0.24186670                    1_GWF-(1,11207)
          8          1          8       11.684076                    1_GWF-(1,26623)     -0.17688091                    1_GWF-(1,11207)
          9          1          9       10.735138                    1_GWF-(1,26589)      0.10885903                    1_GWF-(1,10957)
         10          1         10       9.9179980                    1_GWF-(1,26486)     -0.14321565                    1_GWF-(1,11158)
         11          1         11       9.3435926                    1_GWF-(1,26544)     -0.15542908                    1_GWF-(1,11207)
         12          1         12       7.8208607                    1_GWF-(1,26420)      0.11475131                    1_GWF-(1,11153)
         13          1         13       6.6436357                    1_GWF-(1,26422)  6.78745046E-02                    1_GWF-(1,11194)
         14          1         14      -6.2339055                    1_GWF-(1,26622)     -0.10085053                    1_GWF-(1,11153)
         15          1         15      -5.2617718                    1_GWF-(1,26623) -6.70921596E-02                    1_GWF-(1,11194)
         16          1         16      -4.3282802                    1_GWF-(1,26622)  8.54386486E-02                    1_GWF-(1,11180)
         17          1         17      -4.6570139                    1_GWF-(1,26588) -8.31208108E-02                    1_GWF-(1,11153)
         18          1         18      -5.6528795                    1_GWF-(1,26350) -8.54985592E-02                    1_GWF-(1,11194)
         19          1         19      -6.8635577                    1_GWF-(1,26588)  7.27691606E-02                    1_GWF-(1,11194)
         20          1         20      -5.8973831                    1_GWF-(1,26543) -4.86244573E-02                    1_GWF-(1,11155)
         21          1         21      -4.7147545                    1_GWF-(1,26487) -7.45388018E-02                    1_GWF-(1,11194)
         22          1         22      -5.4016655                    1_GWF-(1,26486)  5.49377928E-02                    1_GWF-(1,11200)
         23          1         23      -4.6009976                    1_GWF-(1,26487)  4.93115831E-02                    1_GWF-(1,11151)
         24          1         24      -4.2747107                    1_GWF-(1,26486) -4.56752672E-02                    1_GWF-(1,11194)
         25          1         25       3.9389093                    1_GWF-(1,26420) -4.78703255E-02                    1_GWF-(1,11109)
         26          1         26       4.4265868                    1_GWF-(1,26487)  4.83275884E-02                    1_GWF-(1,11109)
         27          1         27       4.0665371                    1_GWF-(1,26420)  4.00901981E-02                    1_GWF-(1,11108)
         28          1         28       2.4358720                    1_GWF-(1,26487) -4.01489512E-02                    1_GWF-(1,11195)
         29          1         29       2.1538636                    1_GWF-(1,26588)  4.57803772E-02                    1_GWF-(1,11109)
         30          1         30       2.9363752                    1_GWF-(1,26623)  4.76930607E-02                    1_GWF-(1,11110)
         31          1         31       2.5942217                    1_GWF-(1,26586) -4.22751729E-02                    1_GWF-(1,11150)
         32          1         32       2.2275763                    1_GWF-(1,26648) -3.46841793E-02                    1_GWF-(1,11065)
         33          1         33      -2.0807937                    1_GWF-(1,26422)  2.64660275E-02                    1_GWF-(1,11148)
         34          1         34       2.0612846                    1_GWF-(1,26665) -3.02195849E-02                    1_GWF-(1,11108)
         35          1         35      -1.8768042                    1_GWF-(1,26422) -3.05477397E-02                    1_GWF-(1,11158)
         36          1         36      -1.5102167                    1_GWF-(1,26350)  3.14375477E-02                    1_GWF-(1,11065)
         37          1         37       1.4694783                    1_GWF-(1,26350)  3.61346798E-02                    1_GWF-(1,11200)
         38          1         38       1.2291124                    1_GWF-(1,26422)  3.70569107E-02                    1_GWF-(1,11203)
         39          1         39      -1.4279124                    1_GWF-(1,26649)  3.61521121E-02                    1_GWF-(1,11200)
         40          1         40      -1.1769599                    1_GWF-(1,26648) -3.14022516E-02                    1_GWF-(1,11206)
         41          1         41     -0.94974914                    1_GWF-(1,26649) -2.42615242E-02                    1_GWF-(1,11196)
         42          1         42     -0.74887475                    1_GWF-(1,26648) -2.41329213E-02                    1_GWF-(1,11195)
         43          1         43     -0.72264219                    1_GWF-(1,26586)  2.73923307E-02                    1_GWF-(1,11195)
         44          1         44     -0.76134408                    1_GWF-(1,26543)  2.47051380E-02                    1_GWF-(1,11112)
         45          1         45     -0.63169388                    1_GWF-(1,26542)  2.33129394E-02                    1_GWF-(1,11158)
         46          1         46     -0.84859683                    1_GWF-(1,26218)  3.12193245E-02                    1_GWF-(1,11153)
         47          1         47      -1.1827792                    1_GWF-(1,26217) -2.70500932E-02                    1_GWF-(1,11153)
         48          1         48      -1.3110234                    1_GWF-(1,26218) -2.06973952E-02                    1_GWF-(1,11152)
         49          1         49      -1.2512359                    1_GWF-(1,26217) -2.22613282E-02                    1_GWF-(1,11150)
         50          1         50      -1.1509269                    1_GWF-(1,26218) -2.17228547E-02                    1_GWF-(1,11153)
         51          2          1      -97.876130                    1_GWF-(1,26519)     -0.18861632                    1_GWF-(1,26458)
         52          2          2      -36.667144                    1_GWF-(1,26513) -5.27151927E-02                    1_GWF-(1,26516)
         53          2          3      -20.776933                    1_GWF-(1,26637)  5.27706721E-02                    1_GWF-(1,26516)
         54          2          4      -22.155466                    1_GWF-(1,26665) -1.93156145E-02                    1_GWF-(1,26519)
         55          2          5      -12.245493                    1_GWF-(1,26622)  2.01205100E-02                    1_GWF-(1,26519)
         56          2          6      -11.455495                    1_GWF-(1,26589)  1.45618516E-02                    1_GWF-(1,26516)
         57          2          7      -9.9696623                    1_GWF-(1,26543) -1.18650457E-02                    1_GWF-(1,26516)
         58          2          8      -8.0032354                    1_GWF-(1,26486)  8.95456752E-03                    1_GWF-(1,26519)
         59          2          9      -5.3503490                    1_GWF-(1,26487)  6.69718819E-03                    1_GWF-(1,26665)
         60          2         10      -4.6149563                    1_GWF-(1,26421) -5.77905071E-03                    1_GWF-(1,26665)
         61          2         11      -4.0078531                    1_GWF-(1,26350)  4.33270043E-03                    1_GWF-(1,26519)
         62          2         12      -3.0199955                    1_GWF-(1,26217)  3.53035191E-03                    1_GWF-(1,26516)
         63          2         13      -1.5600369                    1_GWF-(1,26622) -2.35226667E-03                    1_GWF-(1,26622)
         64          2         14      -1.2595673                    1_GWF-(1,26623) -2.22342129E-03                    1_GWF-(1,26563)
         65          2         15      -1.1758730                    1_GWF-(1,26622)  3.18029414E-03                    1_GWF-(1,26516)
         66          2         16      -1.5704405                    1_GWF-(1,25730)  4.09222672E-03                    1_GWF-(1,26599)
         67          2         17       1.3816464                    1_GWF-(1,26350) -2.94030753E-03                    1_GWF-(1,26563)
         68          2         18       1.3267805                    1_GWF-(1,26422) -1.98785819E-03                    1_GWF-(1,26588)
         69          2         19       1.2077979                    1_GWF-(1,26588)  1.95432415E-03                    1_GWF-(1,26588)
         70          2         20       1.0244867                    1_GWF-(1,26543) -2.31956321E-03                    1_GWF-(1,26563)
         71          2         21       1.0872590                    1_GWF-(1,26544)  2.02367761E-03                    1_GWF-(1,14801)
         72          2         22       1.1656444                    1_GWF-(1,26543)  2.45037581E-03                    1_GWF-(1,26601)
         73          2         23     -0.89561719                    1_GWF-(1,26218) -2.70153423E-03                    1_GWF-(1,26563)
         74          2         24      -1.4640053                    1_GWF-(1,26487)  2.66268284E-03                    1_GWF-(1,26486)
         75          2         25      -1.6476125                    1_GWF-(1,26486)  2.70003034E-03                    1_GWF-(1,26563)
         76          2         26      -1.5739061                    1_GWF-(1,26487) -2.74647393E-03                    1_GWF-(1,26563)
         77          2         27     -0.94241012                    1_GWF-(1,26420) -1.89332297E-03                    1_GWF-(1,26562)
         78          2         28      0.86539267                    1_GWF-(1,26217)  2.16767121E-03                    1_GWF-(1,26563)
         79          2         29      0.67644207                    1_GWF-(1,26218) -1.73388798E-03                    1_GWF-(1,26563)
         80          2         30      0.68585767                    1_GWF-(1,26420) -1.98791659E-03                    1_GWF-(1,26562)
         81          2         31     -0.47605022                    1_GWF-(1,26674)  1.35964411E-03                    1_GWF-(1,26562)
         82          2         32     -0.45883841                    1_GWF-(1,26421) -1.39771699E-03                    1_GWF-(1,26516)
         83          2         33     -0.57350106                    1_GWF-(1,26350) -1.61167333E-03                    1_GWF-(1,26562)
         84          2         34      0.58532228                    1_GWF-(1,26350)  1.87461497E-03                    1_GWF-(1,26562)
         85          2         35      0.86496778                    1_GWF-(1,26422) -1.30402229E-03                    1_GWF-(1,10966)
         86          2         36      0.55868514                    1_GWF-(1,26350) -1.71027296E-03                    1_GWF-(1,26562)
         87          2         37     -0.53327031                    1_GWF-(1,26350)  1.96317750E-03                    1_GWF-(1,26562)
         88          2         38     -0.34718125                    1_GWF-(1,26422)  1.35184887E-03                    1_GWF-(1,14960)
         89          2         39     -0.34330689                    1_GWF-(1,26544)  1.62543572E-03                    1_GWF-(1,14961)
         90          2         40     -0.37350027                    1_GWF-(1,26486) -2.03485080E-03                    1_GWF-(1,10966)
         91          2         41     -0.26042349                    1_GWF-(1,26420)  2.12930321E-03                    1_GWF-(1,14800)
         92          2         42     -0.20903384                    1_GWF-(1,26588)  2.49157714E-03                    1_GWF-(1,14801)
         93          2         43     -0.25676891                    1_GWF-(1,25852)  3.15822907E-03                    1_GWF-(1,10966)
         94          2         44     -0.23269827                    1_GWF-(1,26196)  3.24688015E-03                    1_GWF-(1,14801)
         95          2         45     -0.21202399                    1_GWF-(1,26420)  5.14728529E-03                    1_GWF-(1,10966)
         96          2         46     -0.19738582                    1_GWF-(1,26569)  4.09217366E-03                    1_GWF-(1,10961)
         97          2         47      0.18724948                    1_GWF-(1,26193)  6.23236339E-03                    1_GWF-(1,10966)
         98          2         48      0.14613745                    1_GWF-(1,26398)  4.61838264E-03                    1_GWF-(1,10961)
         99          2         49      0.14450646                    1_GWF-(1,22773)  6.02902163E-03                    1_GWF-(1,10966)
        100          2         50      0.14834738                    1_GWF-(1,26196)  4.31481430E-03                    1_GWF-(1,10961)
        101          3          1  8.21763539E-02                    1_GWF-(1,22783) -8.24678683E-03                    1_GWF-(1,11936)
        102          3          2      0.15067416                    1_GWF-(1,22783)  5.01171621E-03                    1_GWF-(1,10961)
        103          3          3      0.10964069                    1_GWF-(1,26649)  8.56446997E-03                    1_GWF-(1,11936)
        104          3          4     -0.15087612                    1_GWF-(1,22783) -5.63426759E-03                    1_GWF-(1,11936)
        105          3          5      0.14419077                    1_GWF-(1,26588)  4.36280613E-03                    1_GWF-(1,10966)
        106          3          6      0.11909740                    1_GWF-(1,26194)  3.51796318E-03                    1_GWF-(1,14801)
        107          3          7     -0.12532701                    1_GWF-(1,26543)  3.74511534E-03                    1_GWF-(1,10966)
        108          3          8     -0.11010075                    1_GWF-(1,26421)  2.11388673E-03                    1_GWF-(1,14801)
        109          3          9      0.11254803                    1_GWF-(1,26588)  2.30397419E-03                    1_GWF-(1,10966)
        110          3         10  9.28320223E-02                    1_GWF-(1,26420) -2.47207644E-03                    1_GWF-(1,14800)
        111          3         11      0.12691817                    1_GWF-(1,26486) -2.15441889E-03                    1_GWF-(1,14801)
        112          3         12      0.10600799                    1_GWF-(1,26648) -1.78453723E-03                    1_GWF-(1,14800)
        113          3         13     -0.10345013                    1_GWF-(1,26672) -1.48103037E-03                    1_GWF-(1,14801)
        114          3         14 -9.68780633E-02                    1_GWF-(1,26622)  1.15989285E-03                    1_GWF-(1,11936)
        115          3         15     -0.11475438                    1_GWF-(1,26350)  1.09865809E-03                    1_GWF-(1,15940)
        116          3         16     -0.13043091                    1_GWF-(1,26422) -9.79976425E-04                    1_GWF-(1,15940)
        117          3         17      0.10212081                    1_GWF-(1,26422) -1.10674078E-03                    1_GWF-(1,10966)
        118          3         18      0.12355415                    1_GWF-(1,26350)  8.79506246E-04                    1_GWF-(1,14800)
        119          3         19      0.11627371                    1_GWF-(1,26422)  1.01221726E-03                    1_GWF-(1,14801)
        120          3         20     -0.11047843                    1_GWF-(1,26422)  9.69469890E-04                    1_GWF-(1,14800)
        121          3         21 -8.52487435E-02                    1_GWF-(1,26420)  9.43729253E-04                    1_GWF-(1,14801)
        122          3         22     -0.10463661                    1_GWF-(1,26672)  6.81630476E-04                    1_GWF-(1,14800)
        123          3         23  7.94649136E-02                    1_GWF-(1,26648) -6.24064787E-04                    1_GWF-(1,10961)
        124          3         24      0.12095031                    1_GWF-(1,26588) -8.72144379E-04                    1_GWF-(1,10966)
        125          3         25      0.14393010                    1_GWF-(1,26543) -8.10617357E-04                    1_GWF-(1,14801)
        126          3         26      0.13823008                    1_GWF-(1,26588) -5.32594050E-04                    1_GWF-(1,10965)
        127          3         27      0.11970072                    1_GWF-(1,26420) -1.12041544E-03                    1_GWF-(1,10966)
        128          3         28 -7.60746951E-02                    1_GWF-(1,26586)  9.35400817E-04                    1_GWF-(1,14800)
        129          3         29 -9.44340979E-02                    1_GWF-(1,26543) -1.30841854E-03                    1_GWF-(1,10966)
        130          3         30 -9.39057472E-02                    1_GWF-(1,26420) -1.07448723E-03                    1_GWF-(1,14801)
        131          3         31     -0.11210745                    1_GWF-(1,26487)  7.76679891E-04                    1_GWF-(1,14801)
        132          3         32 -8.98656375E-02                    1_GWF-(1,26420) -3.35261613E-04                    1_GWF-(1,10966)
        133          3         33 -7.31502841E-02                    1_GWF-(1,26422)  9.47040865E-04                    1_GWF-(1,14800)
        134          3         34 -5.50739218E-02                    1_GWF-(1,26350)  1.34139811E-03                    1_GWF-(1,14801)
        135          3         35  4.93801135E-02                    1_GWF-(1,26623)  1.28536956E-03                    1_GWF-(1,14800)
        136          3         36 -5.20776525E-02                    1_GWF-(1,26623)  1.00403697E-03                    1_GWF-(1,14801)
        137          3         37  5.72672808E-02                    1_GWF-(1,26623)  3.65887024E-04                    1_GWF-(1,14800)
        138          3         38  6.43651191E-02                    1_GWF-(1,26622)  7.67631146E-04                    1_GWF-(1,14800)
        139          3         39  5.28653726E-02                    1_GWF-(1,22786)  1.39015949E-03                    1_GWF-(1,14801)
        140          3         40 -4.67831075E-02                    1_GWF-(1,26665) -1.59469812E-03                    1_GWF-(1,14801)
        141          3         41  7.33253731E-02                    1_GWF-(1,26665)  1.08259399E-03                    1_GWF-(1,14801)
        142          3         42 -9.28394274E-02                    1_GWF-(1,26665)  2.71121075E-04                    1_GWF-(1,10961)
        143          3         43 -9.21118455E-02                    1_GWF-(1,26666)  1.49455421E-03                    1_GWF-(1,14800)
        144          3         44  5.57121468E-02                    1_GWF-(1,26588)  2.15606438E-03                    1_GWF-(1,14801)
        145          3         45  8.33470300E-02                    1_GWF-(1,26665) -2.87934909E-03                    1_GWF-(1,14801)
        146          3         46  6.64958201E-02                    1_GWF-(1,26666) -3.09582472E-03                    1_GWF-(1,14800)
        147          3         47 -4.55499491E-02                    1_GWF-(1,26482) -3.02703921E-03                    1_GWF-(1,14801)
        148          3         48 -4.11883150E-02                    1_GWF-(1,26648)  2.17410062E-03                    1_GWF-(1,14801)
        149          3         49 -5.13965523E-02                    1_GWF-(1,26649) -1.90075325E-03                    1_GWF-(1,14801)
        150          3         50 -4.87686189E-02                    1_GWF-(1,26466) -1.27105237E-03                    1_GWF-(1,14800)
        151          4          1 -2.70007091E-02                    1_GWF-(1,11431) -9.09190767E-04                    1_GWF-(1,14801)
        152          4          2 -2.54405011E-02                    1_GWF-(1,11436)  9.18011428E-04                    1_GWF-(1,14801)
        153          4          3 -1.99559422E-02                    1_GWF-(1,26217) -9.50300952E-04                    1_GWF-(1,14801)
        154          4          4 -1.99269525E-02                    1_GWF-(1,26218) -8.84937694E-04                    1_GWF-(1,14800)
        155          4          5  1.78791676E-02                    1_GWF-(1,26218) -6.99448172E-04                    1_GWF-(1,14801)
        156          4          6 -1.87269540E-02                    1_GWF-(1,26218) -4.62599123E-04                    1_GWF-(1,14800)
        157          4          7 -1.59952295E-02                    1_GWF-(1,26217)  2.01060156E-04                    1_GWF-(1,14800)
        158          4          8 -1.39254177E-02                    1_GWF-(1,26665)  8.59605725E-05                    1_GWF-(1,10966)
        159          4          9  1.70332185E-02                    1_GWF-(1,26665)  2.32353838E-04                    1_GWF-(1,14801)
        160          4         10 -1.62697193E-02                    1_GWF-(1,26665)  2.56130680E-04                    1_GWF-(1,14800)
        161          4         11  1.59159103E-02                    1_GWF-(1,26665)  1.60340250E-04                    1_GWF-(1,14801)
        162          4         12 -7.83698539E-03                    1_GWF-(1,26649)  9.09834217E-05                    1_GWF-(1,14801)
        163          4         13  7.49513816E-03                    1_GWF-(1,26649)  1.89642902E-04                    1_GWF-(1,14800)
        164          4         14  9.08114475E-03                    1_GWF-(1,26622)  1.94922907E-04                    1_GWF-(1,14801)
        165          4         15  8.11661529E-03                    1_GWF-(1,26623)  1.22297119E-04                    1_GWF-(1,14800)
        166          4         16 -6.91507902E-03                    1_GWF-(1,26623)  5.27038974E-05                    1_GWF-(1,14800)
        167          4         17 -7.05163032E-03                    1_GWF-(1,26622)  1.69445265E-04                    1_GWF-(1,14801)
        168          4         18 -4.63811594E-03                    1_GWF-(1,26486)  2.37258027E-04                    1_GWF-(1,14800)
        169          4         19  6.17634705E-03                    1_GWF-(1,26588)  2.40585398E-04                    1_GWF-(1,14801)
        170          4         20 -7.77723985E-03                    1_GWF-(1,26588)  1.23420143E-04                    1_GWF-(1,14800)
        171          4         21  7.35566144E-03                    1_GWF-(1,26420)  7.13201612E-05                    1_GWF-(1,14800)
        172          4         22  5.20183545E-03                    1_GWF-(1,26487)  2.05709011E-04                    1_GWF-(1,14801)
        173          4         23 -4.15705420E-03                    1_GWF-(1,26649) -3.14487919E-04                    1_GWF-(1,14801)
        174          4         24 -4.53237623E-03                    1_GWF-(1,26420) -3.76479763E-04                    1_GWF-(1,14800)
        175          4         25 -6.92111371E-03                    1_GWF-(1,26623) -3.27829045E-04                    1_GWF-(1,14801)
        176          4         26 -6.83269359E-03                    1_GWF-(1,26589) -1.42347832E-04                    1_GWF-(1,14800)
        177          4         27 -7.03660923E-03                    1_GWF-(1,26588)  1.13813700E-04                    1_GWF-(1,14801)
        178          4         28  6.82114157E-03                    1_GWF-(1,26588) -2.56570687E-04                    1_GWF-(1,14801)
        179          4         29 -4.23340977E-03                    1_GWF-(1,26544) -2.58079804E-04                    1_GWF-(1,14800)
        180          4         30  2.70124809E-03                    1_GWF-(1,26544)  2.16369665E-04                    1_GWF-(1,14800)
        181          4         31  4.08703729E-03                    1_GWF-(1,26486)  1.53108849E-04                    1_GWF-(1,14801)
        182          4         32 -3.52717115E-03                    1_GWF-(1,26422)  7.71756108E-05                    1_GWF-(1,14800)
        183          4         33  4.50504431E-03                    1_GWF-(1,26422)  3.24535475E-05                    1_GWF-(1,10966)
        184          4         34 -4.47486304E-03                    1_GWF-(1,26422)  8.81199801E-05                    1_GWF-(1,14801)
        185          4         35 -4.82013196E-03                    1_GWF-(1,26350)  1.41210471E-04                    1_GWF-(1,14800)
        186          4         36 -4.84262289E-03                    1_GWF-(1,26422)  1.62942199E-04                    1_GWF-(1,14801)
        187          4         37 -3.35481880E-03                    1_GWF-(1,26350)  1.57962283E-04                    1_GWF-(1,14800)
        188          4         38 -2.16602019E-03                    1_GWF-(1,26422)  1.55971720E-04                    1_GWF-(1,14801)
        189          4         39 -1.89231749E-03                    1_GWF-(1,22908)  1.30606344E-04                    1_GWF-(1,14800)
        190          4         40 -1.62046279E-03                    1_GWF-(1,22911)  1.19662740E-04                    1_GWF-(1,14801)
        191          4         41  1.65679343E-03                    1_GWF-(1,26394)  1.03570195E-04                    1_GWF-(1,14800)
        192          4         42 -1.50255237E-03                    1_GWF-(1,26663)  9.00857656E-05                    1_GWF-(1,14801)
        193          4         43 -1.58968693E-03                    1_GWF-(1,26674)  7.75325677E-05                    1_GWF-(1,14800)
        194          4         44  2.01148393E-03                    1_GWF-(1,26350)  6.34801438E-05                    1_GWF-(1,14801)
        195          4         45  1.64153781E-03                    1_GWF-(1,26218)  4.59433168E-05                    1_GWF-(1,14800)
        196          4         46  1.57145702E-03                    1_GWF-(1,26487)  6.89292884E-05                    1_GWF-(1,10966)
        197          4         47  9.74455806E-04                    1_GWF-(1,26673) -5.00268290E-05                    1_GWF-(1,10966)
        198          4         48  1.30214707E-03                    1_GWF-(1,26672)  6.43570921E-05                    1_GWF-(1,10966)
        199          4         49 -1.32759614E-03                    1_GWF-(1,26672)  4.54791354E-05                    1_GWF-(1,10961)
        200          4         50 -1.28427684E-03                    1_GWF-(1,26663)  4.99744768E-05                    1_GWF-(1,10966)
        201          5          1 -8.79672114E-03                    1_GWF-(1,11936)  2.88256733E-05                    1_GWF-(1,10745)
        202          5          2 -2.75600964E-03                    1_GWF-(1,11935)  3.10943050E-05                    1_GWF-(1,10966)
        203          5          3 -1.58991649E-03                    1_GWF-(1,11422)  2.06136957E-05                    1_GWF-(1,10961)
        204          5          4 -1.21337182E-03                    1_GWF-(1,11412)  2.97408349E-05                    1_GWF-(1,10966)
        205          5          5 -9.26066509E-04                    1_GWF-(1,11414)  2.48088862E-05                    1_GWF-(1,10965)
        206          5          6  7.89926586E-04                    1_GWF-(1,11935)  3.29784448E-05                    1_GWF-(1,10966)
        207          5          7 -9.28339208E-04                    1_GWF-(1,26672)  2.46882583E-05                    1_GWF-(1,10965)
        208          5          8  9.40907606E-04                    1_GWF-(1,26672)  3.72953455E-05                    1_GWF-(1,10966)
        209          5          9 -1.11630900E-03                    1_GWF-(1,26648)  2.35849847E-05                    1_GWF-(1,10965)
        210          5         10 -1.31206178E-03                    1_GWF-(1,26649)  2.33497302E-05                    1_GWF-(1,10966)
        211          5         11  1.52489697E-03                    1_GWF-(1,26649)  1.17950085E-05                    1_GWF-(1,10963)
        212          5         12  1.69369242E-03                    1_GWF-(1,26622)  1.35046262E-05                    1_GWF-(1,10961)
        213          5         13  1.84133019E-03                    1_GWF-(1,26649) -1.13979701E-05                    1_GWF-(1,10965)
        214          5         14  1.60647460E-03                    1_GWF-(1,26622) -1.24516303E-05                    1_GWF-(1,10966)
        215          5         15  1.27918537E-03                    1_GWF-(1,26623) -7.37413312E-06                    1_GWF-(1,11923)
        216          5         16  7.88928864E-04                    1_GWF-(1,26586)  1.33857461E-05                    1_GWF-(1,10966)
        217          5         17  7.33316037E-04                    1_GWF-(1,26544) -1.90229492E-05                    1_GWF-(1,10966)
        218          5         18  1.21357577E-03                    1_GWF-(1,26486) -2.07883508E-05                    1_GWF-(1,10961)
        219          5         19  1.27990066E-03                    1_GWF-(1,26487) -1.40552375E-05                    1_GWF-(1,10966)
        220          5         20 -1.33032191E-03                    1_GWF-(1,26487) -8.21407278E-06                    1_GWF-(1,10870)
        221          5         21 -1.10462929E-03                    1_GWF-(1,26486) -1.55509446E-05                    1_GWF-(1,10965)
        222          5         22 -6.65228626E-04                    1_GWF-(1,26487) -2.74949756E-05                    1_GWF-(1,10966)
        223          5         23 -7.61038497E-04                    1_GWF-(1,26350)  3.38796013E-05                    1_GWF-(1,10966)
        224          5         24 -9.01896316E-04                    1_GWF-(1,26422)  3.11073699E-05                    1_GWF-(1,10961)
        225          5         25 -8.56822843E-04                    1_GWF-(1,26350)  2.31287710E-05                    1_GWF-(1,10966)
        226          5         26  9.87715986E-04                    1_GWF-(1,26350) -2.73151661E-05                    1_GWF-(1,10966)
        227          5         27  1.15585678E-03                    1_GWF-(1,26422) -9.75206058E-06                    1_GWF-(1,10958)
        228          5         28  9.56978042E-04                    1_GWF-(1,26350) -7.38900687E-06                    1_GWF-(1,10967)
        229          5         29  7.45196735E-04                    1_GWF-(1,26486) -2.00456680E-05                    1_GWF-(1,10966)
        230          5         30 -7.32625743E-04                    1_GWF-(1,26588) -1.75813279E-05                    1_GWF-(1,10961)
        231          5         31  8.25977701E-04                    1_GWF-(1,26588) -1.82219965E-05                    1_GWF-(1,10966)
        232          5         32 -7.20484079E-04                    1_GWF-(1,26588) -6.86619947E-06                    1_GWF-(1,10965)
        233          5         33 -5.94215974E-04                    1_GWF-(1,26422) -6.61749976E-06                    1_GWF-(1,10961)
        234          5         34 -5.14527117E-04                    1_GWF-(1,26350) -1.45907165E-05                    1_GWF-(1,10966)
        235          5         35 -3.63174273E-04                    1_GWF-(1,26422)  1.65345350E-05                    1_GWF-(1,10966)
        236          5         36  2.49552087E-04                    1_GWF-(1,26421) -1.83480621E-05                    1_GWF-(1,10966)
        237          5         37 -1.64844495E-04                    1_GWF-(1,23991)  2.15274488E-05                    1_GWF-(1,10966)
        238          5         38  1.64233086E-04                    1_GWF-(1,26674) -2.14721786E-05                    1_GWF-(1,10966)
        239          5         39  1.65626123E-04                    1_GWF-(1,25693)  2.38193700E-05                    1_GWF-(1,10966)
        240          5         40  1.74378874E-04                    1_GWF-(1,25724) -2.31738567E-05                    1_GWF-(1,10966)
        241          5         41 -2.10120224E-04                    1_GWF-(1,26218)  2.18649455E-05                    1_GWF-(1,10966)
        242          5         42 -3.12289849E-04                    1_GWF-(1,26217) -1.68511424E-05                    1_GWF-(1,10966)
        243          5         43 -3.30069493E-04                    1_GWF-(1,26218) -1.04645830E-05                    1_GWF-(1,10961)
        244          5         44 -3.61275221E-04                    1_GWF-(1,26666) -6.76989936E-06                    1_GWF-(1,10957)
        245          5         45  4.97225018E-04                    1_GWF-(1,26666)  4.31229404E-06                    1_GWF-(1,10963)
        246          5         46  6.68829729E-04                    1_GWF-(1,26665) -5.70779987E-06                    1_GWF-(1,10961)
        247          5         47  5.35908786E-04                    1_GWF-(1,26666) -6.10022961E-06                    1_GWF-(1,10966)
        248          5         48  4.17035046E-04                    1_GWF-(1,26665)  8.64805477E-06                    1_GWF-(1,10966)
        249          5         49  2.83795338E-04                    1_GWF-(1,26218)  5.43120113E-06                    1_GWF-(1,10958)
        250          5         50  2.97507443E-04                    1_GWF-(1,26217)  4.46059025E-06                    1_GWF-(1,10986)
        251          6          1 -3.06179289E-04                    1_GWF-(1,26217)  4.44428914E-06                    1_GWF-(1,10965)
        252          6          2 -3.12156948E-04                    1_GWF-(1,26218)  4.36133247E-06                    1_GWF-(1,10966)
        253          6          3 -2.66293786E-04                    1_GWF-(1,26217)  2.58410322E-06                    1_GWF-(1,10968)
        254          6          4  2.37269800E-04                    1_GWF-(1,26665)  2.53195061E-06                    1_GWF-(1,10987)
        255          6          5 -2.74907819E-04                    1_GWF-(1,26588)  2.82539515E-06                    1_GWF-(1,10966)
        256          6          6 -2.66276306E-04                    1_GWF-(1,26543) -2.47796461E-06                    1_GWF-(1,10966)
        257          6          7 -1.95360156E-04                    1_GWF-(1,26487) -2.49568315E-06                    1_GWF-(1,10961)
        258          6          8 -1.48463904E-04                    1_GWF-(1,26486) -1.64831627E-06                    1_GWF-(1,10958)
        259          6          9  1.72505164E-04                    1_GWF-(1,26486) -1.48611859E-06                    1_GWF-(1,10966)
        260          6         10  1.72318021E-04                    1_GWF-(1,26487) -2.49672416E-06                    1_GWF-(1,10961)
        261          6         11  1.19974042E-04                    1_GWF-(1,26622)  1.41307543E-06                    1_GWF-(1,10961)
        262          6         12  9.95134405E-05                    1_GWF-(1,26217) -1.28200262E-06                    1_GWF-(1,10956)
        263          6         13  1.08631665E-04                    1_GWF-(1,26218)  1.88342113E-06                    1_GWF-(1,11138)
        264          6         14  7.55840708E-05                    1_GWF-(1,26217)  2.14241079E-06                    1_GWF-(1,10961)
        265          6         15  8.46666799E-05                    1_GWF-(1,26622) -1.42460991E-06                    1_GWF-(1,10961)
        266          6         16  1.08040545E-04                    1_GWF-(1,26649) -1.16710103E-06                    1_GWF-(1,10966)
        267          6         17 -1.10751248E-04                    1_GWF-(1,26649)  1.10498848E-06                    1_GWF-(1,10967)
        268          6         18 -9.03915601E-05                    1_GWF-(1,26622) -1.17283601E-06                    1_GWF-(1,10961)
        269          6         19  5.66706450E-05                    1_GWF-(1,26622) -2.20299806E-06                    1_GWF-(1,10966)
        270          6         20  5.57922555E-05                    1_GWF-(1,25760) -1.64628411E-06                    1_GWF-(1,10961)
        271          6         21  5.29136082E-05                    1_GWF-(1,25719) -2.48224893E-06                    1_GWF-(1,10966)
        272          6         22  4.43197036E-05                    1_GWF-(1,25717) -2.66662105E-06                    1_GWF-(1,11132)
        273          6         23 -5.76637243E-05                    1_GWF-(1,26486) -2.18230035E-06                    1_GWF-(1,10966)
        274          6         24  6.69476312E-05                    1_GWF-(1,26422)  1.89114195E-06                    1_GWF-(1,10966)
        275          6         25 -7.76033413E-05                    1_GWF-(1,26422) -2.03243296E-06                    1_GWF-(1,10966)
        276          6         26 -8.91671680E-05                    1_GWF-(1,26350) -8.55203688E-07                    1_GWF-(1,11172)
        277          6         27 -8.68773226E-05                    1_GWF-(1,26422)  1.06900737E-06                    1_GWF-(1,10966)
        278          6         28  8.10799943E-05                    1_GWF-(1,26422) -1.02662899E-06                    1_GWF-(1,11131)
        279          6         29  7.25044332E-05                    1_GWF-(1,26588) -1.45913505E-06                    1_GWF-(1,10961)
        280          6         30 -6.61219297E-05                    1_GWF-(1,26588)  1.03884081E-06                    1_GWF-(1,10961)
        281          6         31  6.57686987E-05                    1_GWF-(1,26588)  5.08908629E-07                    1_GWF-(1,11137)
        282          6         32 -5.63058491E-05                    1_GWF-(1,26588) -1.02835963E-06                    1_GWF-(1,10961)
        283          6         33  4.08831161E-05                    1_GWF-(1,26422) -1.33773791E-06                    1_GWF-(1,10966)
        284          6         34 -4.42883552E-05                    1_GWF-(1,26486)  1.29539572E-06                    1_GWF-(1,10966)
        285          6         35 -3.57906603E-05                    1_GWF-(1,26350) -1.07307614E-06                    1_GWF-(1,10966)
        286          6         36 -3.54709687E-05                    1_GWF-(1,26422)  1.08940348E-06                    1_GWF-(1,10966)
        287          6         37 -3.01980858E-05                    1_GWF-(1,26350) -1.20777864E-06                    1_GWF-(1,10966)
        288          6         38 -2.50284726E-05                    1_GWF-(1,26422)  1.20207941E-06                    1_GWF-(1,10966)
        289          6         39  1.86844477E-05                    1_GWF-(1,26649) -7.48639949E-07                    1_GWF-(1,10966)
        290          6         40  2.47381967E-05                    1_GWF-(1,26648)  7.76757678E-07                    1_GWF-(1,10966)
        291          6         41  3.66342257E-05                    1_GWF-(1,26649)  3.40511809E-07                    1_GWF-(1,11135)
        292          6         42  4.14655192E-05                    1_GWF-(1,26486)  2.67938721E-07                    1_GWF-(1,11060)
        293          6         43  3.77484577E-05                    1_GWF-(1,26487)  5.57846393E-07                    1_GWF-(1,10966)
        294          6         44  2.88809985E-05                    1_GWF-(1,26486)  4.45612996E-07                    1_GWF-(1,10961)
        295          6         45  2.06693917E-05                    1_GWF-(1,26487)  3.75587930E-07                    1_GWF-(1,10966)
        296          6         46  2.05164807E-05                    1_GWF-(1,26486)  2.13642271E-07                    1_GWF-(1,11150)
        297          6         47  1.58289086E-05                    1_GWF-(1,26487)  2.21858912E-07                    1_GWF-(1,11065)
        298          6         48  1.40366724E-05                    1_GWF-(1,26663)  2.10465573E-07                    1_GWF-(1,10960)
        299          6         49  1.77628569E-05                    1_GWF-(1,26672)  2.50713883E-07                    1_GWF-(1,11056)
        300          6         50  2.03843036E-05                    1_GWF-(1,26649)  4.24054646E-07                    1_GWF-(1,10966)
        301          7          1 -2.10511892E-05                    1_GWF-(1,26649)  2.28223769E-07                    1_GWF-(1,10961)
        302          7          2 -1.76816207E-05                    1_GWF-(1,26648)  2.17845365E-07                    1_GWF-(1,10966)
        303          7          3 -2.27801954E-05                    1_GWF-(1,26649)  2.01557493E-07                    1_GWF-(1,11154)
        304          7          4 -2.51197036E-05                    1_GWF-(1,26487)  1.53928638E-07                    1_GWF-(1,11063)
        305          7          5 -2.59226216E-05                    1_GWF-(1,26486)  2.06841031E-07                    1_GWF-(1,10966)
        306          7          6 -2.18465477E-05                    1_GWF-(1,26487)  2.36815954E-07                    1_GWF-(1,10965)
        307          7          7 -1.71495319E-05                    1_GWF-(1,26674)  2.69276943E-07                    1_GWF-(1,10966)
        308          7          8  1.96080236E-05                    1_GWF-(1,26674) -1.98221638E-07                    1_GWF-(1,11426)
        309          7          9  2.10159625E-05                    1_GWF-(1,26663) -2.55882870E-07                    1_GWF-(1,11150)
        310          7         10 -2.13677851E-05                    1_GWF-(1,26666)  2.80397984E-07                    1_GWF-(1,10966)
        311          7         11 -2.46482935E-05                    1_GWF-(1,26665)  1.78215494E-07                    1_GWF-(1,10961)
        312          7         12  1.73070081E-05                    1_GWF-(1,26665)  2.18047519E-07                    1_GWF-(1,11154)
        313          7         13  1.63012558E-05                    1_GWF-(1,26623)  2.36653728E-07                    1_GWF-(1,11150)
        314          7         14  1.42680838E-05                    1_GWF-(1,26486) -2.24434199E-07                    1_GWF-(1,10966)
        315          7         15  1.78386639E-05                    1_GWF-(1,26487)  1.51028834E-07                    1_GWF-(1,11061)
        316          7         16  1.89669443E-05                    1_GWF-(1,26486)  1.69134269E-07                    1_GWF-(1,11150)
        317          7         17  1.84731733E-05                    1_GWF-(1,26649)  1.45714044E-07                    1_GWF-(1,11065)
        318          7         18  1.32156866E-05                    1_GWF-(1,26543) -1.74845918E-07                    1_GWF-(1,10961)
        319          7         19  1.06537875E-05                    1_GWF-(1,26588) -1.58018730E-07                    1_GWF-(1,11147)
        320          7         20 -1.44058244E-05                    1_GWF-(1,26588)  1.79052347E-07                    1_GWF-(1,10966)
        321          7         21  1.58724057E-05                    1_GWF-(1,26588) -1.44973718E-07                    1_GWF-(1,10966)
        322          7         22 -1.97470027E-05                    1_GWF-(1,26588) -1.86771430E-07                    1_GWF-(1,10961)
        323          7         23 -1.51966888E-05                    1_GWF-(1,26543)  1.59510682E-07                    1_GWF-(1,11139)
        324          7         24 -1.52680534E-05                    1_GWF-(1,26588)  2.34908059E-07                    1_GWF-(1,10961)
        325          7         25 -7.98314084E-06                    1_GWF-(1,26543) -2.14081010E-07                    1_GWF-(1,10961)
        326          7         26  5.40000291E-06                    1_GWF-(1,26422) -3.09247093E-07                    1_GWF-(1,10966)
        327          7         27  6.26773753E-06                    1_GWF-(1,26350) -1.91331855E-07                    1_GWF-(1,10958)
        328          7         28  7.43980377E-06                    1_GWF-(1,26486) -2.28987884E-07                    1_GWF-(1,10966)
        329          7         29  8.34485203E-06                    1_GWF-(1,26350) -1.76865544E-07                    1_GWF-(1,10965)
        330          7         30  1.03016744E-05                    1_GWF-(1,26422) -1.52590710E-07                    1_GWF-(1,10966)
        331          7         31  1.09022393E-05                    1_GWF-(1,26350) -1.16265191E-07                    1_GWF-(1,11138)
        332          7         32  1.12847104E-05                    1_GWF-(1,26422) -9.46621215E-08                    1_GWF-(1,10967)
        333          7         33  9.23226994E-06                    1_GWF-(1,26350) -5.61687317E-08                    1_GWF-(1,11150)
        334          7         34 -7.58467992E-06                    1_GWF-(1,26350)  9.48340533E-08                    1_GWF-(1,10967)
        335          7         35  4.88597061E-06                    1_GWF-(1,26544) -9.86278236E-08                    1_GWF-(1,10967)
        336          7         36 -5.52044675E-06                    1_GWF-(1,26622)  7.53722705E-08                    1_GWF-(1,10966)
        337          7         37 -7.27962223E-06                    1_GWF-(1,26649)  6.96992646E-08                    1_GWF-(1,10967)
        338          7         38 -8.67322239E-06                    1_GWF-(1,26622)  5.49613070E-08                    1_GWF-(1,11049)
        339          7         39 -7.63802969E-06                    1_GWF-(1,26649)  5.85553287E-08                    1_GWF-(1,10969)
        340          7         40 -5.36929212E-06                    1_GWF-(1,26622) -1.08376720E-07                    1_GWF-(1,10966)
        341          7         41 -4.66861096E-06                    1_GWF-(1,26544) -1.25667824E-07                    1_GWF-(1,10961)
        342          7         42 -6.52047097E-06                    1_GWF-(1,26486) -1.10281845E-07                    1_GWF-(1,10966)
        343          7         43 -5.44966461E-06                    1_GWF-(1,26544) -6.40172173E-08                    1_GWF-(1,10965)
        344          7         44  7.77044244E-06                    1_GWF-(1,26487) -4.74254349E-08                    1_GWF-(1,11162)
        345          7         45  9.53034492E-06                    1_GWF-(1,26486)  8.16608050E-08                    1_GWF-(1,10961)
        346          7         46  7.12591197E-06                    1_GWF-(1,26487)  7.64666392E-08                    1_GWF-(1,10966)
        347          7         47  5.14892342E-06                    1_GWF-(1,26420)  8.52666026E-08                    1_GWF-(1,10958)
        348          7         48  4.72465315E-06                    1_GWF-(1,26218)  6.92105293E-08                    1_GWF-(1,10986)
        349          7         49  4.67604155E-06                    1_GWF-(1,26217)  6.29111979E-08                    1_GWF-(1,10965)
        350          7         50  4.15385719E-06                    1_GWF-(1,26218)  5.27919551E-08                    1_GWF-(1,10966)
        351          8          1 -4.19024010E-06                    1_GWF-(1,26218)  7.03583284E-08                    1_GWF-(1,10965)
        352          8          2 -4.65655544E-06                    1_GWF-(1,26217)  5.76864378E-08                    1_GWF-(1,10966)
        353          8          3 -3.42936410E-06                    1_GWF-(1,26218)  3.25278245E-08                    1_GWF-(1,11147)
        354          8          4 -3.25759964E-06                    1_GWF-(1,26665)  2.99335700E-08                    1_GWF-(1,11149)
        355          8          5  3.27606628E-06                    1_GWF-(1,26665)  4.14163175E-08                    1_GWF-(1,10966)
        356          8          6 -3.24447183E-06                    1_GWF-(1,26486) -4.33364786E-08                    1_GWF-(1,10966)
        357          8          7 -3.12959973E-06                    1_GWF-(1,26487) -2.94942004E-08                    1_GWF-(1,10961)
        358          8          8 -2.52239534E-06                    1_GWF-(1,26486) -2.22879837E-08                    1_GWF-(1,10957)
        359          8          9  3.46590593E-06                    1_GWF-(1,26486) -2.07531353E-08                    1_GWF-(1,10966)
        360          8         10  2.80056313E-06                    1_GWF-(1,26487) -2.55181706E-08                    1_GWF-(1,10961)
        361          8         11  1.68246689E-06                    1_GWF-(1,26543) -2.08188708E-08                    1_GWF-(1,11065)
        362          8         12  1.52112567E-06                    1_GWF-(1,26218) -2.65958190E-08                    1_GWF-(1,11063)
        363          8         13  1.29122017E-06                    1_GWF-(1,26217) -1.91080681E-08                    1_GWF-(1,10963)
        364          8         14  1.31694415E-06                    1_GWF-(1,26588)  2.22300359E-08                    1_GWF-(1,10961)
        365          8         15 -1.88196206E-06                    1_GWF-(1,26588)  2.37717525E-08                    1_GWF-(1,10966)
        366          8         16  1.71418683E-06                    1_GWF-(1,26623) -1.71149210E-08                    1_GWF-(1,10963)
        367          8         17 -1.51332961E-06                    1_GWF-(1,26623) -2.23377570E-08                    1_GWF-(1,10966)
        368          8         18 -1.29526405E-06                    1_GWF-(1,26622)  3.02910650E-08                    1_GWF-(1,10966)
        369          8         19 -1.23390041E-06                    1_GWF-(1,26649) -4.21277566E-08                    1_GWF-(1,10966)
        370          8         20  1.66214126E-06                    1_GWF-(1,26649) -2.43812263E-08                    1_GWF-(1,10961)
        371          8         21 -1.79221106E-06                    1_GWF-(1,26665) -1.87723203E-08                    1_GWF-(1,10967)
        372          8         22  1.53245093E-06                    1_GWF-(1,26665) -3.05689318E-08                    1_GWF-(1,10966)
        373          8         23 -9.63189129E-07                    1_GWF-(1,26543) -2.68422609E-08                    1_GWF-(1,10961)
        374          9          1 -6.82526386E-07                    1_GWF-(1,26588) -3.30454712E-08                    1_GWF-(1,10966)
 --------------------------------------------------------------------------------------------------------------------------------------


 UBDSV1 SAVING     FLOW-JA-FACE ON UNIT   1020 AT TIME STEP      1, STRESS PERIOD      1
 UBDSV06 SAVING       DATA-SPDIS IN MODEL ML               PACKAGE NPF             CONNECTED TO MODEL ML               PACKAGE NPF              ON UNIT   1020 AT TIME STEP      1, STRESS PERIOD      1
 UBDSV06 SAVING              WEL IN MODEL ML               PACKAGE ML              CONNECTED TO MODEL ML               PACKAGE WEL_0            ON UNIT   1020 AT TIME STEP      1, STRESS PERIOD      1
 UBDSV06 SAVING              DRN IN MODEL ML               PACKAGE ML              CONNECTED TO MODEL ML               PACKAGE DRN_0            ON UNIT   1020 AT TIME STEP      1, STRESS PERIOD      1
 UBDSV06 SAVING              RIV IN MODEL ML               PACKAGE ML              CONNECTED TO MODEL ML               PACKAGE RIV_0            ON UNIT   1020 AT TIME STEP      1, STRESS PERIOD      1
 UBDSV06 SAVING              GHB IN MODEL ML               PACKAGE ML              CONNECTED TO MODEL ML               PACKAGE GHB_0            ON UNIT   1020 AT TIME STEP      1, STRESS PERIOD      1
 UBDSV06 SAVING              RCH IN MODEL ML               PACKAGE ML              CONNECTED TO MODEL ML               PACKAGE RCHA_0           ON UNIT   1020 AT TIME STEP      1, STRESS PERIOD      1

 HEAD WILL BE SAVED ON UNIT 1021 AT END OF TIME STEP    1, STRESS PERIOD    1


  VOLUME BUDGET FOR ENTIRE MODEL AT END OF TIME STEP    1, STRESS PERIOD   1
  ---------------------------------------------------------------------------------------------------

     CUMULATIVE VOLUME      L**3       RATES FOR THIS TIME STEP      L**3/T          PACKAGE NAME    
     ------------------                 ------------------------                     ----------------

           IN:                                      IN:
           ---                                      ---
                 WEL =           0.0000                   WEL =           0.0000     WEL_0           
                 DRN =           0.0000                   DRN =           0.0000     DRN_0           
                 RIV =           6.4210                   RIV =           0.8026     RIV_0           
                 GHB =           9.1010                   GHB =           1.1376     GHB_0           
                 RCH =           6.6109                   RCH =           0.8264     RCHA_0          

            TOTAL IN =          22.1329              TOTAL IN =           2.7666

          OUT:                                     OUT:
          ----                                     ----
                 WEL =           1.3838                   WEL =           0.1730     WEL_0           
                 DRN =           1.4384                   DRN =           0.1798     DRN_0           
                 RIV =          18.3419                   RIV =           2.2927     RIV_0           
                 GHB =           0.9688                   GHB =           0.1211     GHB_0           
                 RCH =           0.0000                   RCH =           0.0000     RCHA_0          

           TOTAL OUT =          22.1329             TOTAL OUT =           2.7666

            IN - OUT =      -5.4719E-06              IN - OUT =      -6.8399E-07

 PERCENT DISCREPANCY =          -0.00     PERCENT DISCREPANCY =          -0.00




         TIME SUMMARY AT END OF TIME STEP    1 IN STRESS PERIOD    1
                    SECONDS     MINUTES      HOURS       DAYS        YEARS
                    -----------------------------------------------------------
   TIME STEP LENGTH  8.0000     0.13333     2.22222E-03 9.25926E-05 2.53505E-07
 STRESS PERIOD TIME  8.0000     0.13333     2.22222E-03 9.25926E-05 2.53505E-07
         TOTAL TIME  8.0000     0.13333     2.22222E-03 9.25926E-05 2.53505E-07


end timestep

