                                   MODFLOW 6
                U.S. GEOLOGICAL SURVEY MODULAR HYDROLOGIC MODEL
                          GROUNDWATER FLOW MODEL (GWF)
                            VERSION 6.2.2 07/30/2021

   MODFLOW 6 compiled Jul 31 2021 14:22:53 with IFORT compiler (ver. 19.10.3)

This software has been approved for release by the U.S. Geological 
Survey (USGS). Although the software has been subjected to rigorous 
review, the USGS reserves the right to update the software as needed 
pursuant to further analysis and review. No warranty, expressed or 
implied, is made by the USGS or the U.S. Government as to the 
functionality of the software and related material nor shall the 
fact of release constitute any such warranty. Furthermore, the 
software is released on condition that neither the USGS nor the U.S. 
Government shall be held liable for any damages resulting from its 
authorized or unauthorized use. Also refer to the USGS Water 
Resources Software User Rights Notice for complete use, copyright, 
and distribution information.


System command used to initiate simulation:
mf6

MODFLOW was compiled using uniform precision.

Real Variables
  KIND: 8
  TINY (smallest non-zero value):    2.225074-308
  HUGE (largest value):    1.797693+308
  PRECISION: 15
  BIT SIZE: 64

Integer Variables
  KIND: 4
  HUGE (largest value): 2147483647
  BIT SIZE: 32

Long Integer Variables
  KIND: 8
  HUGE (largest value): 9223372036854775807
  BIT SIZE: 64

Logical Variables
  KIND: 4
  BIT SIZE: 32
 

 OPENED ./ml.disv
 FILE TYPE:DISV6                  UNIT 1005   STATUS:OLD                 
 FORMAT:FORMATTED              ACCESS:SEQUENTIAL          
 ACTION:READ                


 OPENED ./ml.ic
 FILE TYPE:IC6                    UNIT 1006   STATUS:OLD                 
 FORMAT:FORMATTED              ACCESS:SEQUENTIAL          
 ACTION:READ                


 OPENED ./ml.npf
 FILE TYPE:NPF6                   UNIT 1007   STATUS:OLD                 
 FORMAT:FORMATTED              ACCESS:SEQUENTIAL          
 ACTION:READ                


 OPENED ./ml.ghb
 FILE TYPE:GHB6                   UNIT 1008   STATUS:OLD                 
 FORMAT:FORMATTED              ACCESS:SEQUENTIAL          
 ACTION:READ                


 OPENED ./ml.rcha
 FILE TYPE:RCH6                   UNIT 1009   STATUS:OLD                 
 FORMAT:FORMATTED              ACCESS:SEQUENTIAL          
 ACTION:READ                


 OPENED ./ml.obs
 FILE TYPE:OBS6                   UNIT 1010   STATUS:OLD                 
 FORMAT:FORMATTED              ACCESS:SEQUENTIAL          
 ACTION:READ                


 OPENED ./ml.oc
 FILE TYPE:OC6                    UNIT 1011   STATUS:OLD                 
 FORMAT:FORMATTED              ACCESS:SEQUENTIAL          
 ACTION:READ                


 OPENED ml.wel
 FILE TYPE:WEL6                   UNIT 1012   STATUS:OLD                 
 FORMAT:FORMATTED              ACCESS:SEQUENTIAL          
 ACTION:READ                


 OPENED ml.drn
 FILE TYPE:DRN6                   UNIT 1013   STATUS:OLD                 
 FORMAT:FORMATTED              ACCESS:SEQUENTIAL          
 ACTION:READ                


 OPENED ml.riv
 FILE TYPE:RIV6                   UNIT 1014   STATUS:OLD                 
 FORMAT:FORMATTED              ACCESS:SEQUENTIAL          
 ACTION:READ                


 DISV -- VERTEX GRID DISCRETIZATION PACKAGE, VERSION 1 : 12/23/2015 - INPUT READ FROM UNIT 1005


 # File generated by Flopy version 3.3.5 on 04/28/2022 at 15:59:24.

 PROCESSING DISCRETIZATION OPTIONS
    MODEL LENGTH UNIT IS METERS
    XORIGIN SPECIFIED AS     405575.681000000    
    YORIGIN SPECIFIED AS     6423306.54000000    
 END OF DISCRETIZATION OPTIONS

 PROCESSING DISCRETIZATION DIMENSIONS
   NLAY = 1
   NCPL = 26674
   NVERT = 27090
 END OF DISCRETIZATION DIMENSIONS

 PROCESSING GRIDDATA
 END PROCESSING GRIDDATA

 PROCESSING VERTICES
   SUCCESSFULLY READ 27090 (X,Y) COORDINATES
   MINIMUM X COORDINATE =     405575.681000000    
   MAXIMUM X COORDINATE =     413975.681000000    
   MINIMUM Y COORDINATE =     6423306.54000000    
   MAXIMUM Y COORDINATE =     6432506.54000000    
 END PROCESSING VERTICES

 PROCESSING CELL2D
   SUCCESSFULLY READ 26674 CELL2D INFORMATION ENTRIES
   MINIMUM X CELL CENTER =     405675.681000000    
   MAXIMUM X CELL CENTER =     413875.681000000    
   MINIMUM Y CELL CENTER =     6423406.54000000    
   MAXIMUM Y CELL CENTER =     6432406.54000000    
   MAXIMUM NUMBER OF CELL2D VERTICES IS 6 FOR CELL 208
 END PROCESSING VERTICES

 NPF -- NODE PROPERTY FLOW PACKAGE, VERSION 1, 3/30/2015 INPUT READ FROM UNIT 1007


 # File generated by Flopy version 3.3.5 on 04/28/2022 at 15:59:27.
 PROCESSING NPF OPTIONS
    CELL-BY-CELL FLOW INFORMATION WILL BE SAVED TO BINARY FILE WHENEVER ICBCFL IS NOT ZERO.
    SPECIFIC DISCHARGE WILL BE CALCULATED AT CELL CENTERS AND WRITTEN TO DATA-SPDIS IN BUDGET FILE WHEN REQUESTED.
 END OF NPF OPTIONS

 WEL   -- WEL PACKAGE, VERSION 8, 2/22/2014 INPUT READ FROM UNIT 1012
 # File generated by Flopy version 3.3.5 on 04/28/2022 at 15:59:27.

 PROCESSING WEL OPTIONS
    WEL BOUNDARIES HAVE NAMES IN LAST COLUMN.
    FLOWS WILL BE SAVED TO BUDGET FILE SPECIFIED IN OUTPUT CONTROL
 END OF WEL OPTIONS

 PROCESSING WEL DIMENSIONS
    MAXBOUND =       9
 END OF WEL DIMENSIONS

 DRN   -- DRN PACKAGE, VERSION 8, 2/22/2014 INPUT READ FROM UNIT 1013
 # File generated by Flopy version 3.3.5 on 04/28/2022 at 15:59:27.

 PROCESSING DRN OPTIONS
    DRN BOUNDARIES HAVE NAMES IN LAST COLUMN.
    FLOWS WILL BE SAVED TO BUDGET FILE SPECIFIED IN OUTPUT CONTROL

 OPENED ml.drn.obs
 FILE TYPE:OBS   UNIT 1016   STATUS:OLD                 
 FORMAT:FORMATTED              ACCESS:SEQUENTIAL          
 ACTION:READ                

 END OF DRN OPTIONS

 PROCESSING DRN DIMENSIONS
    MAXBOUND =     133
 END OF DRN DIMENSIONS

 RIV   -- RIV PACKAGE, VERSION 8, 2/22/2014 INPUT READ FROM UNIT 1014
 # File generated by Flopy version 3.3.5 on 04/28/2022 at 15:59:27.

 PROCESSING RIV OPTIONS
    AUXILIARY RIV VARIABLE: FID             
    RIV BOUNDARIES HAVE NAMES IN LAST COLUMN.
    FLOWS WILL BE SAVED TO BUDGET FILE SPECIFIED IN OUTPUT CONTROL
 END OF RIV OPTIONS

 PROCESSING RIV DIMENSIONS
    MAXBOUND =     794
 END OF RIV DIMENSIONS

 GHB   -- GHB PACKAGE, VERSION 8, 2/22/2014 INPUT READ FROM UNIT 1008
 # File generated by Flopy version 3.3.5 on 04/28/2022 at 15:59:27.

 PROCESSING GHB OPTIONS
    GHB BOUNDARIES HAVE NAMES IN LAST COLUMN.
    FLOWS WILL BE SAVED TO BUDGET FILE SPECIFIED IN OUTPUT CONTROL
 END OF GHB OPTIONS

 PROCESSING GHB DIMENSIONS
    MAXBOUND =     153
 END OF GHB DIMENSIONS

 RCH   -- RCH PACKAGE, VERSION 8, 2/22/2014 INPUT READ FROM UNIT 1009
 # File generated by Flopy version 3.3.5 on 04/28/2022 at 15:59:27.

 PROCESSING RCH OPTIONS
    RECHARGE INPUT WILL BE READ AS ARRAY(S).
    FLOWS WILL BE SAVED TO BUDGET FILE SPECIFIED IN OUTPUT CONTROL
 END OF RCH OPTIONS

 IC -- INITIAL CONDITIONS PACKAGE, VERSION 8, 3/28/2015 INPUT READ FROM UNIT 1006
 # File generated by Flopy version 3.3.5 on 04/28/2022 at 15:59:27.
 PROCESSING GRIDDATA

     INITIAL HEAD =   15.00000    
 END PROCESSING GRIDDATA
 PROCESSING GRIDDATA

                ICELLTYPE = 0

 OPENED ../com_ext/k.txt
 FILE TYPE:OPEN/CLOSE   UNIT 1017   STATUS:OLD                 
 FORMAT:FORMATTED              ACCESS:SEQUENTIAL          
 ACTION:READ                

 K33 not provided.  Assuming K33 = K.
 K22 not provided.  Assuming K22 = K.
 END PROCESSING GRIDDATA

The observation utility is active for "ML"
 # File generated by Flopy version 3.3.5 on 04/28/2022 at 15:59:27.

Processing observation options:

Text output number of digits of precision set to: 10
The PRINT_INPUT option has been specified.


 OBSERVATIONS READ FROM FILE "ml.obs"
 ----------------------------------------------------------------------------------------------------------------------------------------------------------------------------------------------------------------------------
 NAME                                     TYPE                                       TIME         LOCATION DATA                              OUTPUT FILENAME                                                                 
 ----------------------------------------------------------------------------------------------------------------------------------------------------------------------------------------------------------------------------
 PRG                                      CONTINUOUS  HEAD                           ALL TIMES    "1 16523"                                  sim/hds.csv                                                                     
 P8                                       CONTINUOUS  HEAD                           ALL TIMES    "1 10323"                                  sim/hds.csv                                                                     
 P24                                      CONTINUOUS  HEAD                           ALL TIMES    "1 9594"                                   sim/hds.csv                                                                     
 P25                                      CONTINUOUS  HEAD                           ALL TIMES    "1 13966"                                  sim/hds.csv                                                                     
 P32                                      CONTINUOUS  HEAD                           ALL TIMES    "1 15787"                                  sim/hds.csv                                                                     
 P33                                      CONTINUOUS  HEAD                           ALL TIMES    "1 15825"                                  sim/hds.csv                                                                     
 PF                                       CONTINUOUS  HEAD                           ALL TIMES    "1 21048"                                  sim/hds.csv                                                                     
 PH                                       CONTINUOUS  HEAD                           ALL TIMES    "1 20781"                                  sim/hds.csv                                                                     
 PZHM1                                    CONTINUOUS  HEAD                           ALL TIMES    "1 14521"                                  sim/hds.csv                                                                     
 P26                                      CONTINUOUS  HEAD                           ALL TIMES    "1 13141"                                  sim/hds.csv                                                                     
 P27                                      CONTINUOUS  HEAD                           ALL TIMES    "1 8465"                                   sim/hds.csv                                                                     
 P28                                      CONTINUOUS  HEAD                           ALL TIMES    "1 8924"                                   sim/hds.csv                                                                     
 P29                                      CONTINUOUS  HEAD                           ALL TIMES    "1 4524"                                   sim/hds.csv                                                                     
 P30                                      CONTINUOUS  HEAD                           ALL TIMES    "1 5255"                                   sim/hds.csv                                                                     
 R20                                      CONTINUOUS  HEAD                           ALL TIMES    "1 10676"                                  sim/hds.csv                                                                     
 R21                                      CONTINUOUS  HEAD                           ALL TIMES    "1 10403"                                  sim/hds.csv                                                                     
 P34                                      CONTINUOUS  HEAD                           ALL TIMES    "1 15131"                                  sim/hds.csv                                                                     
 P37                                      CONTINUOUS  HEAD                           ALL TIMES    "1 15755"                                  sim/hds.csv                                                                     
 P38                                      CONTINUOUS  HEAD                           ALL TIMES    "1 15045"                                  sim/hds.csv                                                                     
 P39                                      CONTINUOUS  HEAD                           ALL TIMES    "1 9637"                                   sim/hds.csv                                                                     
 P40                                      CONTINUOUS  HEAD                           ALL TIMES    "1 9312"                                   sim/hds.csv                                                                     
 AP1                                      CONTINUOUS  HEAD                           ALL TIMES    "1 9702"                                   sim/hds.csv                                                                     
 RCK1                                     CONTINUOUS  HEAD                           ALL TIMES    "1 15900"                                  sim/hds.csv                                                                     
 RCK2                                     CONTINUOUS  HEAD                           ALL TIMES    "1 15199"                                  sim/hds.csv                                                                     
 P23                                      CONTINUOUS  HEAD                           ALL TIMES    "1 6409"                                   sim/hds.csv                                                                     
 ----------------------------------------------------------------------------------------------------------------------------------------------------------------------------------------------------------------------------


    BINARY GRID INFORMATION WILL BE WRITTEN TO:
      UNIT NUMBER: 1019
      FILE NAME: /srv/common/ptrack/case_study/pst/ml_08/./ml.disv.grb

 OPENED /srv/common/ptrack/case_study/pst/ml_08/./ml.disv.grb
 FILE TYPE:DATA(BINARY)   UNIT 1019   STATUS:REPLACE             
 FORMAT:UNFORMATTED            ACCESS:STREAM              
 ACTION:READWRITE           

      THE LAST TIME STEP WILL BE PRINTED
      THE LAST TIME STEP WILL BE PRINTED
 # File generated by Flopy version 3.3.5 on 04/28/2022 at 15:59:27.

 PROCESSING OC OPTIONS

    BUDGET INFORMATION WILL BE WRITTEN TO:
      UNIT NUMBER: 1020
      FILE NAME: ml.cbc

 OPENED ml.cbc
 FILE TYPE:DATA(BINARY)   UNIT 1020   STATUS:REPLACE             
 FORMAT:UNFORMATTED            ACCESS:STREAM              
 ACTION:READWRITE           

    HEAD INFORMATION WILL BE WRITTEN TO:
      UNIT NUMBER: 1021
      FILE NAME: ml.hds

 OPENED ml.hds
 FILE TYPE:DATA(BINARY)   UNIT 1021   STATUS:REPLACE             
 FORMAT:UNFORMATTED            ACCESS:STREAM              
 ACTION:READWRITE           

 END OF OC OPTIONS

The observation utility is active for "DRN_0"
 # File generated by Flopy version 3.3.5 on 04/28/2022 at 15:59:27.

Processing observation options:



start timestep kper="1" kstp="1" mode="normal"


 BEGIN READING OUTPUT CONTROL FOR STRESS PERIOD 1
      THE LAST TIME STEP WILL BE SAVED
      THE LAST TIME STEP WILL BE SAVED

 END READING OUTPUT CONTROL FOR STRESS PERIOD 1

 OPENED ext/wel_spd_1.txt
 FILE TYPE:OPEN/CLOSE   UNIT 1023   STATUS:OLD                 
 FORMAT:FORMATTED              ACCESS:SEQUENTIAL          
 ACTION:READ                


 OPENED ext/drn_spd_1.txt
 FILE TYPE:OPEN/CLOSE   UNIT 1024   STATUS:OLD                 
 FORMAT:FORMATTED              ACCESS:SEQUENTIAL          
 ACTION:READ                


 OPENED ext/riv_spd_1.txt
 FILE TYPE:OPEN/CLOSE   UNIT 1025   STATUS:OLD                 
 FORMAT:FORMATTED              ACCESS:SEQUENTIAL          
 ACTION:READ                


 OPENED ../com_ext/ghb_spd_1.txt
 FILE TYPE:OPEN/CLOSE   UNIT 1026   STATUS:OLD                 
 FORMAT:FORMATTED              ACCESS:SEQUENTIAL          
 ACTION:READ                


 OPENED ../com_ext/rech_spd_1.txt
 FILE TYPE:OPEN/CLOSE   UNIT 1027   STATUS:OLD                 
 FORMAT:FORMATTED              ACCESS:SEQUENTIAL          
 ACTION:READ                


 SLN_1 INNER ITERATION SUMMARY
 --------------------------------------------------------------------------------------------------------------------------------------
      TOTAL      OUTER      INNER                                                            MAXIMUM                                   
  ITERATION  ITERATION  ITERATION  MAXIMUM CHANGE      MAXIMUM CHANGE MODEL-(CELLID)        RESIDUAL    MAXIMUM RESIDUAL MODEL-(CELLID)
 --------------------------------------------------------------------------------------------------------------------------------------
          1          1          1      -11.850734                    1_GWF-(1,12785)      0.15901997                    1_GWF-(1,11171)
          2          1          2       7.7866545                    1_GWF-(1,26516)      0.21841335                    1_GWF-(1,10969)
          3          1          3       9.4332191                    1_GWF-(1,26565)      0.20938467                    1_GWF-(1,10968)
          4          1          4       8.6947091                    1_GWF-(1,26510)      0.18717260                    1_GWF-(1,10955)
          5          1          5       6.7506648                    1_GWF-(1,26647)      0.18316994                    1_GWF-(1,10869)
          6          1          6       7.1619422                    1_GWF-(1,26649)      0.14859579                    1_GWF-(1,11140)
          7          1          7       5.5476568                    1_GWF-(1,26622)      0.19815930                    1_GWF-(1,10969)
          8          1          8       4.5383342                    1_GWF-(1,26665)      0.16086263                    1_GWF-(1,10963)
          9          1          9       3.9070943                    1_GWF-(1,26647)      0.16372831                    1_GWF-(1,10956)
         10          1         10       4.5839478                    1_GWF-(1,26665)      0.16201545                    1_GWF-(1,10869)
         11          1         11       4.2068547                    1_GWF-(1,26544)      0.14052469                    1_GWF-(1,10969)
         12          1         12       3.0649252                    1_GWF-(1,26486)      0.14012119                    1_GWF-(1,10966)
         13          1         13       2.9963736                    1_GWF-(1,26622)      0.13106722                    1_GWF-(1,10962)
         14          1         14       2.4678126                    1_GWF-(1,26623)      0.12468073                    1_GWF-(1,10969)
         15          1         15       2.3177980                    1_GWF-(1,26622)      0.14171144                    1_GWF-(1,10968)
         16          1         16       1.5463075                    1_GWF-(1,26623)      0.12964781                    1_GWF-(1,10961)
         17          1         17      -1.5465492                    1_GWF-(1,26623)      0.13227510                    1_GWF-(1,10958)
         18          1         18       2.4599569                    1_GWF-(1,26588)      0.14284576                    1_GWF-(1,10969)
         19          1         19      -3.3407085                    1_GWF-(1,26588)      0.13929004                    1_GWF-(1,10968)
         20          1         20      -3.1438686                    1_GWF-(1,26543)      0.12884946                    1_GWF-(1,10963)
         21          1         21      -2.7153565                    1_GWF-(1,26544)      0.11838416                    1_GWF-(1,10958)
         22          1         22      -3.4939593                    1_GWF-(1,26486)      0.12798019                    1_GWF-(1,10969)
         23          1         23      -3.9246112                    1_GWF-(1,26487)      0.11243111                    1_GWF-(1,10965)
         24          1         24      -4.1899573                    1_GWF-(1,26486)      0.12161011                    1_GWF-(1,10963)
         25          1         25      -3.3375879                    1_GWF-(1,26487)      0.10619338                    1_GWF-(1,10955)
         26          1         26      -2.2489341                    1_GWF-(1,26588)  9.23371293E-02                    1_GWF-(1,10869)
         27          1         27       2.2004423                    1_GWF-(1,26420)      0.11350924                    1_GWF-(1,10965)
         28          1         28       1.8242040                    1_GWF-(1,26487)      0.11387987                    1_GWF-(1,10957)
         29          1         29       1.8058008                    1_GWF-(1,26420)      0.10340699                    1_GWF-(1,10872)
         30          1         30       1.9684139                    1_GWF-(1,26422)      0.10430472                    1_GWF-(1,10965)
         31          1         31       2.2466410                    1_GWF-(1,26350)      0.11728498                    1_GWF-(1,10960)
         32          1         32       2.5713023                    1_GWF-(1,26422)  9.85937777E-02                    1_GWF-(1,10958)
         33          1         33      -2.5005983                    1_GWF-(1,26422) -7.83550305E-02                    1_GWF-(1,10960)
         34          1         34       2.4044177                    1_GWF-(1,26422)  6.55613321E-02                    1_GWF-(1,10966)
         35          1         35      -2.0620378                    1_GWF-(1,26422)  7.15336655E-02                    1_GWF-(1,10958)
         36          1         36      -1.5758042                    1_GWF-(1,26350)  6.10843480E-02                    1_GWF-(1,10968)
         37          1         37      -1.2593586                    1_GWF-(1,26422) -4.62197844E-02                    1_GWF-(1,10962)
         38          1         38     -0.94869209                    1_GWF-(1,24901) -5.41364141E-02                    1_GWF-(1,10967)
         39          1         39     -0.88103948                    1_GWF-(1,24895)  4.66446500E-02                    1_GWF-(1,10968)
         40          1         40      -1.0698688                    1_GWF-(1,26648)  4.30769436E-02                    1_GWF-(1,10961)
         41          1         41      -1.4058396                    1_GWF-(1,26649)  4.64030689E-02                    1_GWF-(1,10963)
         42          1         42      -1.4946020                    1_GWF-(1,26648) -4.63422449E-02                    1_GWF-(1,10991)
         43          1         43      -1.2840882                    1_GWF-(1,26586) -5.98414671E-02                    1_GWF-(1,11138)
         44          1         44      -1.1232337                    1_GWF-(1,26623)  4.28850162E-02                    1_GWF-(1,11140)
         45          1         45      0.99855161                    1_GWF-(1,26218) -5.27081605E-02                    1_GWF-(1,11140)
         46          1         46     -0.88210181                    1_GWF-(1,21319) -4.71608916E-02                    1_GWF-(1,11138)
         47          1         47      -1.1002634                    1_GWF-(1,26217)  4.63800225E-02                    1_GWF-(1,11139)
         48          1         48      -1.4230747                    1_GWF-(1,26218)  4.80590803E-02                    1_GWF-(1,14868)
         49          1         49      -1.4838686                    1_GWF-(1,26217) -4.94775528E-02                    1_GWF-(1,10990)
         50          1         50      -1.3839117                    1_GWF-(1,26218)  4.35361957E-02                    1_GWF-(1,14868)
         51          2          1      -41.202078                    1_GWF-(1,26519)     -0.14279970                    1_GWF-(1,26519)
         52          2          2      -15.966738                    1_GWF-(1,26513) -4.50018364E-02                    1_GWF-(1,26516)
         53          2          3      -7.6056116                    1_GWF-(1,26637)  3.55508953E-02                    1_GWF-(1,26516)
         54          2          4      -9.2566652                    1_GWF-(1,26665)  3.47627884E-02                    1_GWF-(1,14868)
         55          2          5      -4.9258763                    1_GWF-(1,26622)  2.82906655E-02                    1_GWF-(1,14869)
         56          2          6      -4.7487084                    1_GWF-(1,26589)  4.25506468E-02                    1_GWF-(1,14868)
         57          2          7      -3.8396023                    1_GWF-(1,26543)  3.98776905E-02                    1_GWF-(1,14869)
         58          2          8      -3.5727899                    1_GWF-(1,26486)  6.50245893E-02                    1_GWF-(1,14868)
         59          2          9      -2.4031880                    1_GWF-(1,26487)  4.23807135E-02                    1_GWF-(1,14869)
         60          2         10      -2.2723046                    1_GWF-(1,26350)  4.12644947E-02                    1_GWF-(1,14868)
         61          2         11      -1.8803502                    1_GWF-(1,26348)  1.00987388E-02                    1_GWF-(1,14868)
         62          2         12      -1.6436213                    1_GWF-(1,26217)  2.36168282E-02                    1_GWF-(1,14869)
         63          2         13      -1.0483865                    1_GWF-(1,26218)  3.72033587E-02                    1_GWF-(1,14868)
         64          2         14     -0.69559997                    1_GWF-(1,26649)  3.02814609E-02                    1_GWF-(1,14869)
         65          2         15     -0.73958212                    1_GWF-(1,26622)  2.55597976E-02                    1_GWF-(1,14868)
         66          2         16      0.89621339                    1_GWF-(1,26420)  2.50162080E-02                    1_GWF-(1,14868)
         67          2         17       1.1718957                    1_GWF-(1,26218)  2.83813199E-02                    1_GWF-(1,14869)
         68          2         18      0.97115710                    1_GWF-(1,26217)  3.99784562E-02                    1_GWF-(1,14868)
         69          2         19      0.84881085                    1_GWF-(1,26218)  2.54429533E-02                    1_GWF-(1,14869)
         70          2         20      0.66389828                    1_GWF-(1,26543)  2.31106750E-02                    1_GWF-(1,14868)
         71          2         21      0.94422091                    1_GWF-(1,26588)  1.56116815E-02                    1_GWF-(1,14868)
         72          2         22      0.99057517                    1_GWF-(1,26543)  2.51346364E-02                    1_GWF-(1,14869)
         73          2         23     -0.62426070                    1_GWF-(1,26218)  4.59098728E-02                    1_GWF-(1,14868)
         74          2         24     -0.82221142                    1_GWF-(1,26487)  3.63977570E-02                    1_GWF-(1,14869)
         75          2         25      -1.1216138                    1_GWF-(1,26486)  3.62680254E-02                    1_GWF-(1,14868)
         76          2         26      -1.1125004                    1_GWF-(1,26487)  1.25498928E-02                    1_GWF-(1,14868)
         77          2         27     -0.71792590                    1_GWF-(1,26588)  2.80990895E-02                    1_GWF-(1,14869)
         78          2         28     -0.34824410                    1_GWF-(1,26398)  4.70955200E-02                    1_GWF-(1,14868)
         79          2         29     -0.38628097                    1_GWF-(1,26327)  4.32281091E-02                    1_GWF-(1,14869)
         80          2         30      0.35393862                    1_GWF-(1,26420)  6.60340274E-02                    1_GWF-(1,14868)
         81          2         31     -0.25508282                    1_GWF-(1,26175)  6.01517545E-02                    1_GWF-(1,14869)
         82          2         32     -0.25951179                    1_GWF-(1,26674)  9.06041249E-02                    1_GWF-(1,14868)
         83          2         33     -0.23848197                    1_GWF-(1,26350) -7.48704182E-02                    1_GWF-(1,14868)
         84          2         34     -0.19261380                    1_GWF-(1,25803)  9.68998246E-02                    1_GWF-(1,14868)
         85          2         35      0.30892867                    1_GWF-(1,26422)  6.52250087E-02                    1_GWF-(1,14869)
         86          2         36      0.25996249                    1_GWF-(1,26350)  6.77497288E-02                    1_GWF-(1,14868)
         87          2         37      0.19702225                    1_GWF-(1,26422)  3.71611563E-02                    1_GWF-(1,14869)
         88          2         38      0.19694667                    1_GWF-(1,26544)  2.79621814E-02                    1_GWF-(1,14868)
         89          2         39     -0.20670097                    1_GWF-(1,26649)  2.84755854E-02                    1_GWF-(1,14868)
         90          2         40     -0.29172653                    1_GWF-(1,26486)  5.06351303E-02                    1_GWF-(1,14869)
         91          2         41      0.22669977                    1_GWF-(1,26422)  9.44788326E-02                    1_GWF-(1,14868)
         92          2         42     -0.23806225                    1_GWF-(1,26421)     -0.11041902                    1_GWF-(1,14868)
         93          2         43     -0.35592614                    1_GWF-(1,26350)      0.13837861                    1_GWF-(1,14868)
         94          2         44     -0.21999255                    1_GWF-(1,26486)     -0.12595174                    1_GWF-(1,14868)
         95          2         45     -0.26104258                    1_GWF-(1,26420)      0.13233268                    1_GWF-(1,14868)
         96          2         46     -0.17382190                    1_GWF-(1,26421) -9.52213883E-02                    1_GWF-(1,14868)
         97          2         47     -0.24810100                    1_GWF-(1,26350)  8.22950078E-02                    1_GWF-(1,14868)
         98          2         48     -0.17548303                    1_GWF-(1,26664) -5.61130059E-02                    1_GWF-(1,14868)
         99          2         49     -0.16811240                    1_GWF-(1,26649)  5.63147416E-02                    1_GWF-(1,14868)
        100          2         50     -0.19829239                    1_GWF-(1,26623) -4.14361751E-02                    1_GWF-(1,14868)
        101          3          1     -0.23243333                    1_GWF-(1,16215)  2.58279279E-02                    1_GWF-(1,14868)
        102          3          2      0.17259588                    1_GWF-(1,26586) -5.45108122E-02                    1_GWF-(1,14868)
        103          3          3      0.24187275                    1_GWF-(1,26623)  6.21363223E-02                    1_GWF-(1,14868)
        104          3          4      0.17450880                    1_GWF-(1,26649) -4.67077040E-02                    1_GWF-(1,14868)
        105          3          5     -0.18550691                    1_GWF-(1,16130)  6.12301114E-02                    1_GWF-(1,14868)
        106          3          6      0.16180690                    1_GWF-(1,16130) -6.66247559E-02                    1_GWF-(1,14868)
        107          3          7      0.12767754                    1_GWF-(1,26198)  6.61525082E-02                    1_GWF-(1,14868)
        108          3          8     -0.15984488                    1_GWF-(1,26674) -5.13111818E-02                    1_GWF-(1,14868)
        109          3          9      0.13558956                    1_GWF-(1,16130)  5.90162363E-02                    1_GWF-(1,14868)
        110          3         10      0.12755129                    1_GWF-(1,26350) -4.29934869E-02                    1_GWF-(1,14868)
        111          3         11      0.12664242                    1_GWF-(1,26486)  3.70745995E-02                    1_GWF-(1,14868)
        112          3         12     -0.15092939                    1_GWF-(1,26422)  1.85636728E-02                    1_GWF-(1,14869)
        113          3         13     -0.10961163                    1_GWF-(1,26350)  1.29927577E-02                    1_GWF-(1,14868)
        114          3         14      0.13061163                    1_GWF-(1,26350)  4.51983236E-03                    1_GWF-(1,14867)
        115          3         15     -0.12104874                    1_GWF-(1,26350)  1.04689951E-02                    1_GWF-(1,14869)
        116          3         16     -0.12713915                    1_GWF-(1,26422)  2.28914111E-02                    1_GWF-(1,14868)
        117          3         17      0.10183469                    1_GWF-(1,26422)  2.18595955E-02                    1_GWF-(1,14869)
        118          3         18      0.11846217                    1_GWF-(1,26350)  3.53338004E-02                    1_GWF-(1,14868)
        119          3         19 -7.65585837E-02                    1_GWF-(1,26350) -3.76203802E-02                    1_GWF-(1,14868)
        120          3         20  8.63131557E-02                    1_GWF-(1,26420)  4.53527113E-02                    1_GWF-(1,14868)
        121          3         21 -8.27753597E-02                    1_GWF-(1,26420) -4.00003979E-02                    1_GWF-(1,14868)
        122          3         22 -9.28198342E-02                    1_GWF-(1,25297)  4.27428613E-02                    1_GWF-(1,14868)
        123          3         23     -0.11235930                    1_GWF-(1,25444) -3.26805308E-02                    1_GWF-(1,14868)
        124          3         24      0.12493543                    1_GWF-(1,26588)  2.84270403E-02                    1_GWF-(1,14868)
        125          3         25      0.16051004                    1_GWF-(1,26487)  8.85219026E-03                    1_GWF-(1,14869)
        126          3         26      0.19465660                    1_GWF-(1,26420)  9.41971544E-03                    1_GWF-(1,14869)
        127          3         27      0.21660514                    1_GWF-(1,26487)  2.25882913E-02                    1_GWF-(1,14868)
        128          3         28     -0.13963619                    1_GWF-(1,26487) -1.72678185E-02                    1_GWF-(1,14868)
        129          3         29     -0.16726752                    1_GWF-(1,26486)  1.65587367E-02                    1_GWF-(1,14868)
        130          3         30     -0.15580293                    1_GWF-(1,26588)  3.99917793E-03                    1_GWF-(1,14869)
        131          3         31     -0.15288115                    1_GWF-(1,26543)  5.10855810E-03                    1_GWF-(1,14869)
        132          3         32     -0.14996001                    1_GWF-(1,26588)  1.19908755E-02                    1_GWF-(1,14868)
        133          3         33      0.12309580                    1_GWF-(1,26588)  9.35682024E-03                    1_GWF-(1,14869)
        134          3         34  9.38260115E-02                    1_GWF-(1,26543)  1.04825305E-02                    1_GWF-(1,14868)
        135          3         35     -0.11606898                    1_GWF-(1,26665)  3.01702209E-03                    1_GWF-(1,14869)
        136          3         36      0.10630609                    1_GWF-(1,26665)  2.75750651E-03                    1_GWF-(1,14869)
        137          3         37      0.12397959                    1_GWF-(1,26666)  5.85026511E-03                    1_GWF-(1,14868)
        138          3         38      0.12667640                    1_GWF-(1,26622) -4.77494297E-03                    1_GWF-(1,14868)
        139          3         39  9.22961767E-02                    1_GWF-(1,26217)  4.12867448E-03                    1_GWF-(1,14868)
        140          3         40     -0.12882588                    1_GWF-(1,26665)  1.56400023E-03                    1_GWF-(1,14782)
        141          3         41      0.12723176                    1_GWF-(1,26665) -2.81821725E-03                    1_GWF-(1,14868)
        142          3         42     -0.14975354                    1_GWF-(1,26665)  4.90254515E-03                    1_GWF-(1,14868)
        143          3         43     -0.13460250                    1_GWF-(1,26666) -5.08563346E-03                    1_GWF-(1,14868)
        144          3         44      0.12546222                    1_GWF-(1,26543)  5.16363974E-03                    1_GWF-(1,14868)
        145          3         45      0.14585998                    1_GWF-(1,26649)  3.62770811E-03                    1_GWF-(1,14782)
        146          3         46      0.15090652                    1_GWF-(1,26648)  5.48710757E-03                    1_GWF-(1,14867)
        147          3         47  9.08166270E-02                    1_GWF-(1,26664) -4.79172954E-03                    1_GWF-(1,14867)
        148          3         48  9.26277466E-02                    1_GWF-(1,26217)  4.16443643E-03                    1_GWF-(1,14867)
        149          3         49     -0.10518853                    1_GWF-(1,26648) -5.16336213E-03                    1_GWF-(1,14867)
        150          3         50     -0.10413428                    1_GWF-(1,26218)  4.25344192E-03                    1_GWF-(1,14867)
        151          4          1 -6.70908694E-02                    1_GWF-(1,26217) -3.35510151E-03                    1_GWF-(1,14867)
        152          4          2 -6.84932329E-02                    1_GWF-(1,26218)  3.19735115E-03                    1_GWF-(1,14867)
        153          4          3 -7.45552267E-02                    1_GWF-(1,26217)  2.43574915E-03                    1_GWF-(1,14782)
        154          4          4 -7.45089722E-02                    1_GWF-(1,26218)  2.98573028E-03                    1_GWF-(1,14867)
        155          4          5 -5.31854569E-02                    1_GWF-(1,26422)  1.92797700E-03                    1_GWF-(1,14782)
        156          4          6 -4.81080673E-02                    1_GWF-(1,26218)  1.90247738E-03                    1_GWF-(1,14868)
        157          4          7 -3.63516189E-02                    1_GWF-(1,26485) -1.53551539E-03                    1_GWF-(1,14868)
        158          4          8 -4.86246689E-02                    1_GWF-(1,26665)  1.80986906E-03                    1_GWF-(1,14868)
        159          4          9 -5.94410484E-02                    1_GWF-(1,26666) -1.58465591E-03                    1_GWF-(1,14868)
        160          4         10 -5.88287122E-02                    1_GWF-(1,26665) -1.04922330E-03                    1_GWF-(1,14867)
        161          4         11  5.91786980E-02                    1_GWF-(1,26665)  5.41330579E-04                    1_GWF-(1,10962)
        162          4         12  3.61754934E-02                    1_GWF-(1,26622) -1.06782580E-03                    1_GWF-(1,14868)
        163          4         13  3.68441426E-02                    1_GWF-(1,26623)  1.65795094E-03                    1_GWF-(1,14868)
        164          4         14  5.02284682E-02                    1_GWF-(1,26622)  1.19477526E-03                    1_GWF-(1,14869)
        165          4         15  4.31073570E-02                    1_GWF-(1,26623)  7.43193209E-04                    1_GWF-(1,14782)
        166          4         16  3.47625951E-02                    1_GWF-(1,26665)  9.87637628E-04                    1_GWF-(1,14868)
        167          4         17  2.52756790E-02                    1_GWF-(1,26588) -1.27252609E-03                    1_GWF-(1,14868)
        168          4         18  2.05818357E-02                    1_GWF-(1,26543)  1.48793458E-03                    1_GWF-(1,14868)
        169          4         19 -2.36566168E-02                    1_GWF-(1,26543) -1.46458237E-03                    1_GWF-(1,14868)
        170          4         20 -3.27272973E-02                    1_GWF-(1,26588)  6.27956751E-04                    1_GWF-(1,14868)
        171          4         21 -3.18313523E-02                    1_GWF-(1,26543)  9.57057388E-04                    1_GWF-(1,14868)
        172          4         22 -2.34991013E-02                    1_GWF-(1,26588) -1.63143045E-03                    1_GWF-(1,14868)
        173          4         23 -2.97074264E-02                    1_GWF-(1,26486)  2.49821943E-03                    1_GWF-(1,14868)
        174          4         24 -3.40578129E-02                    1_GWF-(1,26487)  1.78552223E-03                    1_GWF-(1,14869)
        175          4         25 -2.90542443E-02                    1_GWF-(1,26420)  8.19577328E-04                    1_GWF-(1,14868)
        176          4         26 -2.47827966E-02                    1_GWF-(1,26487)  1.43394420E-03                    1_GWF-(1,14868)
        177          4         27 -1.80976924E-02                    1_GWF-(1,26420) -2.53700264E-03                    1_GWF-(1,14868)
        178          4         28 -1.24043969E-02                    1_GWF-(1,26421)  3.98635014E-03                    1_GWF-(1,14868)
        179          4         29  1.04776719E-02                    1_GWF-(1,26543) -4.54256149E-03                    1_GWF-(1,14868)
        180          4         30  1.23645601E-02                    1_GWF-(1,26420)  5.11339638E-03                    1_GWF-(1,14868)
        181          4         31  1.81629794E-02                    1_GWF-(1,26422) -4.47798252E-03                    1_GWF-(1,14868)
        182          4         32  1.87500106E-02                    1_GWF-(1,26350)  5.24100695E-03                    1_GWF-(1,14868)
        183          4         33  1.87720821E-02                    1_GWF-(1,26421) -3.66930020E-03                    1_GWF-(1,14868)
        184          4         34  1.85581099E-02                    1_GWF-(1,26350)  3.92784918E-03                    1_GWF-(1,14868)
        185          4         35  1.91659880E-02                    1_GWF-(1,26422) -2.01174968E-03                    1_GWF-(1,14868)
        186          4         36  1.09828250E-02                    1_GWF-(1,26350)  1.74465083E-03                    1_GWF-(1,14867)
        187          4         37 -1.66569182E-02                    1_GWF-(1,26350)  1.49197965E-03                    1_GWF-(1,14782)
        188          4         38 -1.47765636E-02                    1_GWF-(1,26422)  1.93601067E-03                    1_GWF-(1,14867)
        189          4         39 -1.37675906E-02                    1_GWF-(1,26544)  2.08063800E-03                    1_GWF-(1,14868)
        190          4         40 -1.45023447E-02                    1_GWF-(1,26486)  2.09708592E-03                    1_GWF-(1,14869)
        191          4         41 -1.13823285E-02                    1_GWF-(1,26350)  2.91135801E-03                    1_GWF-(1,14868)
        192          4         42 -8.87163637E-03                    1_GWF-(1,26422) -2.54999582E-03                    1_GWF-(1,14868)
        193          4         43 -8.25915021E-03                    1_GWF-(1,26544)  3.14600579E-03                    1_GWF-(1,14868)
        194          4         44 -6.50234181E-03                    1_GWF-(1,26486) -2.66883975E-03                    1_GWF-(1,14868)
        195          4         45 -5.58173701E-03                    1_GWF-(1,16130)  3.01707556E-03                    1_GWF-(1,14868)
        196          4         46  6.06238093E-03                    1_GWF-(1,16130) -2.81269394E-03                    1_GWF-(1,14868)
        197          4         47  7.64396014E-03                    1_GWF-(1,26672)  3.27268325E-03                    1_GWF-(1,14868)
        198          4         48 -5.90408870E-03                    1_GWF-(1,26623) -3.09625320E-03                    1_GWF-(1,14868)
        199          4         49  7.18571079E-03                    1_GWF-(1,16130)  2.29182619E-03                    1_GWF-(1,14868)
        200          4         50  7.31082314E-03                    1_GWF-(1,26326) -2.32140060E-03                    1_GWF-(1,14868)
        201          5          1 -1.67107441E-02                    1_GWF-(1,11933)  1.61165740E-03                    1_GWF-(1,14868)
        202          5          2 -8.47289540E-03                    1_GWF-(1,11938) -2.02541104E-03                    1_GWF-(1,14868)
        203          5          3 -4.69886861E-03                    1_GWF-(1,26673)  2.20544827E-03                    1_GWF-(1,14868)
        204          5          4 -5.16650132E-03                    1_GWF-(1,26672) -2.32851167E-03                    1_GWF-(1,14868)
        205          5          5  4.64518394E-03                    1_GWF-(1,26672)  2.39884156E-03                    1_GWF-(1,14868)
        206          5          6 -3.08066457E-03                    1_GWF-(1,20231) -2.17583324E-03                    1_GWF-(1,14868)
        207          5          7  3.64935187E-03                    1_GWF-(1,26186)  2.42757750E-03                    1_GWF-(1,14868)
        208          5          8 -4.84396052E-03                    1_GWF-(1,26422) -2.12077798E-03                    1_GWF-(1,14868)
        209          5          9 -3.29809905E-03                    1_GWF-(1,26350)  2.24282548E-03                    1_GWF-(1,14868)
        210          5         10  4.40694195E-03                    1_GWF-(1,26350) -1.62166134E-03                    1_GWF-(1,14868)
        211          5         11  6.23797754E-03                    1_GWF-(1,26486)  1.66437127E-03                    1_GWF-(1,14868)
        212          5         12 -6.14573647E-03                    1_GWF-(1,26422)  9.87703599E-04                    1_GWF-(1,14869)
        213          5         13  7.19828050E-03                    1_GWF-(1,26422)  6.35709263E-04                    1_GWF-(1,14782)
        214          5         14  7.71700363E-03                    1_GWF-(1,26350)  5.56853717E-04                    1_GWF-(1,14867)
        215          5         15 -7.05393314E-03                    1_GWF-(1,26544)  7.39423470E-04                    1_GWF-(1,14869)
        216          5         16 -8.24354447E-03                    1_GWF-(1,26486)  1.21076176E-03                    1_GWF-(1,14868)
        217          5         17 -8.32850089E-03                    1_GWF-(1,26588)  6.20533260E-04                    1_GWF-(1,14867)
        218          5         18 -7.28245192E-03                    1_GWF-(1,26589)  4.27523024E-04                    1_GWF-(1,14869)
        219          5         19 -8.41852367E-03                    1_GWF-(1,26422)  1.30453827E-03                    1_GWF-(1,14868)
        220          5         20 -8.95911499E-03                    1_GWF-(1,26350) -1.61038483E-03                    1_GWF-(1,14868)
        221          5         21 -6.61701838E-03                    1_GWF-(1,26422)  2.27237753E-03                    1_GWF-(1,14868)
        222          5         22 -4.21732645E-03                    1_GWF-(1,25442) -2.28048629E-03                    1_GWF-(1,14868)
        223          5         23 -4.45266774E-03                    1_GWF-(1,25442)  2.33796086E-03                    1_GWF-(1,14868)
        224          5         24  5.72832452E-03                    1_GWF-(1,26486) -1.58492757E-03                    1_GWF-(1,14868)
        225          5         25  5.80751268E-03                    1_GWF-(1,26487)  8.93163996E-04                    1_GWF-(1,14868)
        226          5         26  6.04718079E-03                    1_GWF-(1,26486)  4.88135314E-04                    1_GWF-(1,14868)
        227          5         27 -6.74213084E-03                    1_GWF-(1,26649) -1.11252490E-03                    1_GWF-(1,14868)
        228          5         28  5.58508413E-03                    1_GWF-(1,26420)  1.61121872E-03                    1_GWF-(1,14868)
        229          5         29 -3.69977164E-03                    1_GWF-(1,26649) -1.27059968E-03                    1_GWF-(1,14868)
        230          5         30 -3.78177565E-03                    1_GWF-(1,22718)  1.19895633E-03                    1_GWF-(1,14868)
        231          5         31 -3.27127845E-03                    1_GWF-(1,26420) -7.20323091E-04                    1_GWF-(1,14868)
        232          5         32  3.59585978E-03                    1_GWF-(1,26665)  5.78777567E-04                    1_GWF-(1,14868)
        233          5         33  3.80265906E-03                    1_GWF-(1,26647) -3.06738280E-04                    1_GWF-(1,14867)
        234          5         34  5.06069816E-03                    1_GWF-(1,26622)  5.24034520E-04                    1_GWF-(1,14867)
        235          5         35 -7.14742786E-03                    1_GWF-(1,26665)  4.16240431E-04                    1_GWF-(1,14782)
        236          5         36 -5.68993521E-03                    1_GWF-(1,26666)  3.48916924E-04                    1_GWF-(1,14869)
        237          5         37 -4.05777352E-03                    1_GWF-(1,26622)  4.61669927E-04                    1_GWF-(1,14868)
        238          5         38 -3.71702474E-03                    1_GWF-(1,26589) -3.28468211E-04                    1_GWF-(1,14867)
        239          5         39 -4.85927804E-03                    1_GWF-(1,26588)  5.88140867E-04                    1_GWF-(1,14867)
        240          5         40 -4.20639698E-03                    1_GWF-(1,26589) -6.56641582E-04                    1_GWF-(1,14867)
        241          5         41  5.35450685E-03                    1_GWF-(1,26665)  5.55676413E-04                    1_GWF-(1,14867)
        242          5         42  6.95071122E-03                    1_GWF-(1,26588)  2.03173373E-04                    1_GWF-(1,14868)
        243          5         43  6.11295597E-03                    1_GWF-(1,26589) -3.80751675E-04                    1_GWF-(1,14867)
        244          5         44  5.15840664E-03                    1_GWF-(1,26588)  6.94642337E-04                    1_GWF-(1,14867)
        245          5         45  3.40106690E-03                    1_GWF-(1,26665) -8.26438482E-04                    1_GWF-(1,14867)
        246          5         46  2.67937077E-03                    1_GWF-(1,26666)  9.75278555E-04                    1_GWF-(1,14867)
        247          5         47  2.86392725E-03                    1_GWF-(1,26218) -8.66852355E-04                    1_GWF-(1,14867)
        248          5         48  3.44067625E-03                    1_GWF-(1,26217)  8.71856569E-04                    1_GWF-(1,14867)
        249          5         49  2.88625831E-03                    1_GWF-(1,26218) -7.92361462E-04                    1_GWF-(1,14867)
        250          5         50  2.41811266E-03                    1_GWF-(1,26217)  7.33356836E-04                    1_GWF-(1,14867)
        251          6          1 -2.43774182E-03                    1_GWF-(1,26217) -6.69641791E-04                    1_GWF-(1,14867)
        252          6          2 -2.86303660E-03                    1_GWF-(1,26218)  6.67979409E-04                    1_GWF-(1,14867)
        253          6          3 -3.31564076E-03                    1_GWF-(1,26217) -5.40527110E-04                    1_GWF-(1,14867)
        254          6          4 -3.13626618E-03                    1_GWF-(1,26218)  5.44184772E-04                    1_GWF-(1,14867)
        255          6          5 -2.52095439E-03                    1_GWF-(1,26422) -3.82380035E-04                    1_GWF-(1,14867)
        256          6          6 -2.09460651E-03                    1_GWF-(1,26487)  3.17962774E-04                    1_GWF-(1,14867)
        257          6          7 -1.99260188E-03                    1_GWF-(1,26486)  1.18508009E-04                    1_GWF-(1,14782)
        258          6          8 -2.90706238E-03                    1_GWF-(1,26665)  1.11827803E-04                    1_GWF-(1,14868)
        259          6          9 -2.85371467E-03                    1_GWF-(1,26588)  2.40619315E-04                    1_GWF-(1,14867)
        260          6         10 -2.14889136E-03                    1_GWF-(1,26665) -1.93376337E-04                    1_GWF-(1,14867)
        261          6         11  1.89683509E-03                    1_GWF-(1,26543)  1.28442366E-04                    1_GWF-(1,14867)
        262          6         12  2.21522175E-03                    1_GWF-(1,26588)  9.33918984E-05                    1_GWF-(1,14869)
        263          6         13  1.74199912E-03                    1_GWF-(1,26589)  1.40507092E-04                    1_GWF-(1,14868)
        264          6         14  1.74082298E-03                    1_GWF-(1,26588)  1.53713498E-04                    1_GWF-(1,14867)
        265          6         15  1.76108227E-03                    1_GWF-(1,26649)  1.52003591E-04                    1_GWF-(1,14782)
        266          6         16  2.11984862E-03                    1_GWF-(1,26665)  1.09007456E-04                    1_GWF-(1,14867)
        267          6         17  1.48448884E-03                    1_GWF-(1,26543)  5.50515475E-05                    1_GWF-(1,14869)
        268          6         18  9.14114792E-04                    1_GWF-(1,24609)  1.02914397E-04                    1_GWF-(1,14868)
        269          6         19  8.97369154E-04                    1_GWF-(1,24661)  1.42648118E-04                    1_GWF-(1,14867)
        270          6         20  9.49837086E-04                    1_GWF-(1,24664)  2.05909768E-04                    1_GWF-(1,14868)
        271          6         21 -9.87761314E-04                    1_GWF-(1,26649)  2.31793415E-04                    1_GWF-(1,14867)
        272          6         22 -1.11073859E-03                    1_GWF-(1,26486)  1.96927225E-04                    1_GWF-(1,14868)
        273          6         23 -1.32793816E-03                    1_GWF-(1,26649)  6.99803671E-05                    1_GWF-(1,14869)
        274          6         24 -1.47497620E-03                    1_GWF-(1,26622)  1.29279987E-04                    1_GWF-(1,14867)
        275          6         25 -1.21000204E-03                    1_GWF-(1,26623)  1.96430578E-04                    1_GWF-(1,14868)
        276          6         26 -8.51281504E-04                    1_GWF-(1,26217) -2.20162168E-04                    1_GWF-(1,14868)
        277          6         27 -9.17653968E-04                    1_GWF-(1,26421)  2.91310603E-04                    1_GWF-(1,14868)
        278          6         28 -8.62739553E-04                    1_GWF-(1,26420) -2.66058864E-04                    1_GWF-(1,14868)
        279          6         29  1.01503570E-03                    1_GWF-(1,26420)  2.55637485E-04                    1_GWF-(1,14868)
        280          6         30  1.10566955E-03                    1_GWF-(1,26422) -1.14947272E-04                    1_GWF-(1,14868)
        281          6         31  1.39329887E-03                    1_GWF-(1,26486)  1.17401111E-04                    1_GWF-(1,14867)
        282          6         32  1.48966778E-03                    1_GWF-(1,26487)  2.00230283E-04                    1_GWF-(1,14868)
        283          6         33  1.22498458E-03                    1_GWF-(1,26486)  1.88231176E-04                    1_GWF-(1,14869)
        284          6         34  8.20304820E-04                    1_GWF-(1,26350)  2.30092667E-04                    1_GWF-(1,14868)
        285          6         35  8.92396889E-04                    1_GWF-(1,26422) -1.28891949E-04                    1_GWF-(1,14868)
        286          6         36 -6.90910167E-04                    1_GWF-(1,26422)  1.32443578E-04                    1_GWF-(1,14867)
        287          6         37 -1.04048997E-03                    1_GWF-(1,26350)  1.19246701E-04                    1_GWF-(1,14782)
        288          6         38 -9.36767494E-04                    1_GWF-(1,26422)  1.54792140E-04                    1_GWF-(1,14867)
        289          6         39 -6.39257585E-04                    1_GWF-(1,26544)  1.06144893E-04                    1_GWF-(1,14782)
        290          6         40 -5.80675823E-04                    1_GWF-(1,26486)  1.12990742E-04                    1_GWF-(1,14869)
        291          6         41 -5.63524289E-04                    1_GWF-(1,26350)  1.69339684E-04                    1_GWF-(1,14868)
        292          6         42 -3.84019068E-04                    1_GWF-(1,26422) -1.71799478E-04                    1_GWF-(1,14868)
        293          6         43  4.14608360E-04                    1_GWF-(1,26422)  2.29690540E-04                    1_GWF-(1,14868)
        294          6         44  4.41321059E-04                    1_GWF-(1,26350) -1.98854615E-04                    1_GWF-(1,14868)
        295          6         45  2.75725183E-04                    1_GWF-(1,26486)  2.21944332E-04                    1_GWF-(1,14868)
        296          6         46 -2.68118911E-04                    1_GWF-(1,25786) -1.97640753E-04                    1_GWF-(1,14868)
        297          6         47 -3.14750453E-04                    1_GWF-(1,25787)  1.75827760E-04                    1_GWF-(1,14868)
        298          6         48 -3.02482272E-04                    1_GWF-(1,25761) -1.42182870E-04                    1_GWF-(1,14868)
        299          6         49  3.05865320E-04                    1_GWF-(1,11934)  1.12742214E-04                    1_GWF-(1,14868)
        300          6         50  4.88505553E-04                    1_GWF-(1,11933) -1.17732754E-04                    1_GWF-(1,14868)
        301          7          1 -5.09410705E-04                    1_GWF-(1,11933)  1.01800419E-04                    1_GWF-(1,14868)
        302          7          2 -3.29624267E-04                    1_GWF-(1,11938) -1.21025816E-04                    1_GWF-(1,14868)
        303          7          3 -2.27377493E-04                    1_GWF-(1,26397)  1.37086788E-04                    1_GWF-(1,14868)
        304          7          4  2.92568246E-04                    1_GWF-(1,26217) -1.57646678E-04                    1_GWF-(1,14868)
        305          7          5  2.59571237E-04                    1_GWF-(1,26218)  1.74752085E-04                    1_GWF-(1,14868)
        306          7          6 -2.71006285E-04                    1_GWF-(1,26486) -1.68463936E-04                    1_GWF-(1,14868)
        307          7          7 -3.33503534E-04                    1_GWF-(1,26350)  1.82460337E-04                    1_GWF-(1,14868)
        308          7          8 -3.95364033E-04                    1_GWF-(1,26422) -1.41962919E-04                    1_GWF-(1,14868)
        309          7          9  3.08288446E-04                    1_GWF-(1,26588)  1.28737347E-04                    1_GWF-(1,14868)
        310          7         10  2.56216723E-04                    1_GWF-(1,26350)  7.51991163E-05                    1_GWF-(1,14869)
        311          7         11  3.70760695E-04                    1_GWF-(1,26588)  5.87995962E-05                    1_GWF-(1,14782)
        312          7         12 -4.84393654E-04                    1_GWF-(1,26588)  6.23411076E-05                    1_GWF-(1,14867)
        313          7         13  5.81357379E-04                    1_GWF-(1,26588)  5.90271194E-05                    1_GWF-(1,14869)
        314          7         14  3.96766916E-04                    1_GWF-(1,26543)  7.37281181E-05                    1_GWF-(1,14868)
        315          7         15 -4.21674595E-04                    1_GWF-(1,26486)  7.77547715E-05                    1_GWF-(1,14867)
        316          7         16 -3.82103977E-04                    1_GWF-(1,26544)  6.88906411E-05                    1_GWF-(1,14782)
        317          7         17 -4.20830975E-04                    1_GWF-(1,26486)  6.83821669E-05                    1_GWF-(1,14867)
        318          7         18 -4.50467680E-04                    1_GWF-(1,26589)  6.69318971E-05                    1_GWF-(1,14869)
        319          7         19 -4.74818610E-04                    1_GWF-(1,26588)  7.54867408E-05                    1_GWF-(1,14868)
        320          7         20 -4.58378895E-04                    1_GWF-(1,26422)  6.67308828E-05                    1_GWF-(1,14867)
        321          7         21 -4.55619869E-04                    1_GWF-(1,26350) -5.66723068E-05                    1_GWF-(1,14867)
        322          7         22 -4.79140145E-04                    1_GWF-(1,26422)  7.28649494E-05                    1_GWF-(1,14868)
        323          7         23 -3.82006426E-04                    1_GWF-(1,26350) -8.74988195E-05                    1_GWF-(1,14868)
        324          7         24  3.33393139E-04                    1_GWF-(1,26487)  1.02023391E-04                    1_GWF-(1,14868)
        325          7         25  4.24180642E-04                    1_GWF-(1,26486) -7.37625804E-05                    1_GWF-(1,14868)
        326          7         26  3.67989373E-04                    1_GWF-(1,26487)  3.99699124E-05                    1_GWF-(1,14868)
        327          7         27  4.19613486E-04                    1_GWF-(1,26420)  3.62598049E-05                    1_GWF-(1,14868)
        328          7         28  4.01981396E-04                    1_GWF-(1,26422) -6.90456309E-05                    1_GWF-(1,14868)
        329          7         29  3.52245955E-04                    1_GWF-(1,26420)  1.02344756E-04                    1_GWF-(1,14868)
        330          7         30 -2.65381881E-04                    1_GWF-(1,26420) -9.30416642E-05                    1_GWF-(1,14868)
        331          7         31 -2.21053002E-04                    1_GWF-(1,24663)  8.83456536E-05                    1_GWF-(1,14868)
        332          7         32 -2.04990378E-04                    1_GWF-(1,24661) -6.95128453E-05                    1_GWF-(1,14868)
        333          7         33 -2.08456883E-04                    1_GWF-(1,26218)  5.99664632E-05                    1_GWF-(1,14868)
        334          7         34 -1.94057781E-04                    1_GWF-(1,26217)  4.58806253E-05                    1_GWF-(1,14867)
        335          7         35 -2.16801310E-04                    1_GWF-(1,26175)  4.47814882E-05                    1_GWF-(1,14868)
        336          7         36 -2.48030376E-04                    1_GWF-(1,26663)  2.57106941E-05                    1_GWF-(1,14869)
        337          7         37 -1.73290854E-04                    1_GWF-(1,26674)  2.36465689E-05                    1_GWF-(1,14868)
        338          7         38  2.55876841E-04                    1_GWF-(1,26674)  1.44384302E-05                    1_GWF-(1,14782)
        339          7         39 -2.94799562E-04                    1_GWF-(1,26665)  2.83334639E-05                    1_GWF-(1,14867)
        340          7         40  3.25393491E-04                    1_GWF-(1,26665)  2.31023239E-05                    1_GWF-(1,14782)
        341          7         41 -3.38726254E-04                    1_GWF-(1,26665)  1.72007509E-05                    1_GWF-(1,14869)
        342          7         42  2.61327057E-04                    1_GWF-(1,26622)  2.19997121E-05                    1_GWF-(1,14868)
        343          7         43  2.73286444E-04                    1_GWF-(1,26623)  1.84233822E-05                    1_GWF-(1,14782)
        344          7         44  2.07779380E-04                    1_GWF-(1,26542)  3.35841824E-05                    1_GWF-(1,14867)
        345          7         45  1.63375964E-04                    1_GWF-(1,26543) -3.64656673E-05                    1_GWF-(1,14867)
        346          7         46  1.86947715E-04                    1_GWF-(1,26422)  4.80882970E-05                    1_GWF-(1,14867)
        347          7         47  2.16274165E-04                    1_GWF-(1,26218) -4.32474365E-05                    1_GWF-(1,14867)
        348          7         48  2.55907111E-04                    1_GWF-(1,26217)  5.07456885E-05                    1_GWF-(1,14867)
        349          7         49  2.09964487E-04                    1_GWF-(1,26218) -4.80862953E-05                    1_GWF-(1,14867)
        350          7         50  1.53339873E-04                    1_GWF-(1,26217)  4.74316829E-05                    1_GWF-(1,14867)
        351          8          1 -1.39170619E-04                    1_GWF-(1,26217) -4.47499269E-05                    1_GWF-(1,14867)
        352          8          2 -1.74320717E-04                    1_GWF-(1,26218)  4.45957001E-05                    1_GWF-(1,14867)
        353          8          3 -2.01960186E-04                    1_GWF-(1,26217) -3.60104657E-05                    1_GWF-(1,14867)
        354          8          4 -1.77660634E-04                    1_GWF-(1,26218)  3.66261889E-05                    1_GWF-(1,14867)
        355          8          5 -1.52454704E-04                    1_GWF-(1,26420) -2.50870462E-05                    1_GWF-(1,14867)
        356          8          6 -1.67705483E-04                    1_GWF-(1,26487)  1.80436269E-05                    1_GWF-(1,14867)
        357          8          7 -2.05298385E-04                    1_GWF-(1,26486)  5.49917272E-06                    1_GWF-(1,14869)
        358          8          8 -1.71611346E-04                    1_GWF-(1,26623)  1.27067513E-05                    1_GWF-(1,14782)
        359          8          9  2.05243480E-04                    1_GWF-(1,26487)  1.87460938E-05                    1_GWF-(1,14867)
        360          8         10  1.74117091E-04                    1_GWF-(1,26486) -1.03225160E-05                    1_GWF-(1,14867)
        361          8         11  1.00135746E-04                    1_GWF-(1,26588)  7.77450253E-06                    1_GWF-(1,14868)
        362          8         12  1.08755861E-04                    1_GWF-(1,26543)  6.77606285E-06                    1_GWF-(1,14869)
        363          8         13  1.07622432E-04                    1_GWF-(1,26665)  7.79516439E-06                    1_GWF-(1,14868)
        364          8         14 -1.29914320E-04                    1_GWF-(1,26665)  1.02954873E-05                    1_GWF-(1,14867)
        365          8         15  1.38531934E-04                    1_GWF-(1,26665)  6.73463591E-06                    1_GWF-(1,14782)
        366          8         16  1.29838911E-04                    1_GWF-(1,26666)  6.25810426E-06                    1_GWF-(1,14868)
        367          8         17  8.50900091E-05                    1_GWF-(1,26665)  6.10414528E-06                    1_GWF-(1,14869)
        368          8         18 -7.06508558E-05                    1_GWF-(1,26649)  7.38438212E-06                    1_GWF-(1,14868)
        369          8         19  8.41121857E-05                    1_GWF-(1,26623)  6.89164968E-06                    1_GWF-(1,14867)
        370          8         20 -1.00349571E-04                    1_GWF-(1,26649)  2.24431077E-06                    1_GWF-(1,10968)
        371          8         21 -1.13382210E-04                    1_GWF-(1,26622)  7.19091733E-06                    1_GWF-(1,14868)
        372          8         22 -7.51474378E-05                    1_GWF-(1,26649)  1.02760689E-05                    1_GWF-(1,14867)
        373          8         23 -4.91284355E-05                    1_GWF-(1,26487)  1.26236328E-05                    1_GWF-(1,14868)
        374          8         24 -5.76125899E-05                    1_GWF-(1,26420)  1.39610009E-05                    1_GWF-(1,14867)
        375          8         25 -7.10653483E-05                    1_GWF-(1,26218)  1.55324143E-05                    1_GWF-(1,14868)
        376          8         26 -5.90505006E-05                    1_GWF-(1,26420) -1.41346100E-05                    1_GWF-(1,14868)
        377          8         27 -6.83060553E-05                    1_GWF-(1,26421)  1.41329430E-05                    1_GWF-(1,14868)
        378          8         28  7.76553107E-05                    1_GWF-(1,26589) -4.97913292E-06                    1_GWF-(1,14868)
        379          8         29  9.38295501E-05                    1_GWF-(1,26588)  8.05391981E-06                    1_GWF-(1,14867)
        380          8         30 -7.85243686E-05                    1_GWF-(1,26588)  1.27000260E-05                    1_GWF-(1,14868)
        381          8         31  7.25469505E-05                    1_GWF-(1,26486) -1.39695243E-05                    1_GWF-(1,14868)
        382          8         32  5.97283148E-05                    1_GWF-(1,26350)  1.88106803E-05                    1_GWF-(1,14868)
        383          8         33  6.50791938E-05                    1_GWF-(1,26422)  1.32704448E-05                    1_GWF-(1,14869)
        384          8         34  5.61083927E-05                    1_GWF-(1,26350)  1.47075387E-05                    1_GWF-(1,14868)
        385          8         35  5.26485973E-05                    1_GWF-(1,26422) -8.26982431E-06                    1_GWF-(1,14868)
        386          8         36 -5.19293114E-05                    1_GWF-(1,26422)  7.96252786E-06                    1_GWF-(1,14867)
        387          8         37 -7.09909955E-05                    1_GWF-(1,26350)  7.30149557E-06                    1_GWF-(1,14782)
        388          8         38 -6.24499650E-05                    1_GWF-(1,26422)  9.33340648E-06                    1_GWF-(1,14867)
        389          8         39 -3.85297508E-05                    1_GWF-(1,26544)  6.39158763E-06                    1_GWF-(1,14782)
        390          8         40 -3.38737432E-05                    1_GWF-(1,26486)  7.32779973E-06                    1_GWF-(1,14869)
        391          8         41 -3.04393172E-05                    1_GWF-(1,26350)  1.11172287E-05                    1_GWF-(1,14868)
        392          8         42 -2.12638515E-05                    1_GWF-(1,26648) -1.17354477E-05                    1_GWF-(1,14868)
        393          8         43  3.15811785E-05                    1_GWF-(1,26422)  1.48565904E-05                    1_GWF-(1,14868)
        394          8         44  2.95117901E-05                    1_GWF-(1,26350) -1.26944998E-05                    1_GWF-(1,14868)
        395          8         45  2.84224404E-05                    1_GWF-(1,26486)  1.18883092E-05                    1_GWF-(1,14868)
        396          8         46  2.77918116E-05                    1_GWF-(1,26487) -6.55562814E-06                    1_GWF-(1,14868)
        397          8         47  3.85698046E-05                    1_GWF-(1,26622) -1.82275487E-06                    1_GWF-(1,14868)
        398          8         48  3.55748525E-05                    1_GWF-(1,26588)  8.32151010E-06                    1_GWF-(1,14868)
        399          8         49  3.16259242E-05                    1_GWF-(1,26589) -1.08021209E-05                    1_GWF-(1,14868)
        400          8         50  2.64279481E-05                    1_GWF-(1,26623)  1.13896509E-05                    1_GWF-(1,14868)
        401          9          1 -2.09270971E-05                    1_GWF-(1,26623) -1.50370487E-05                    1_GWF-(1,14868)
        402          9          2  2.50851671E-05                    1_GWF-(1,26487)  9.48396712E-06                    1_GWF-(1,14868)
        403          9          3 -2.77916658E-05                    1_GWF-(1,26588) -2.27312334E-06                    1_GWF-(1,14868)
        404          9          4 -3.36272959E-05                    1_GWF-(1,26622) -5.51681996E-06                    1_GWF-(1,14868)
        405          9          5 -2.73266471E-05                    1_GWF-(1,26544)  8.55136221E-06                    1_GWF-(1,14868)
        406          9          6 -2.86326015E-05                    1_GWF-(1,26486) -8.66760768E-06                    1_GWF-(1,14868)
        407          9          7 -1.94968689E-05                    1_GWF-(1,26350)  1.21125641E-05                    1_GWF-(1,14868)
        408          9          8 -2.60993657E-05                    1_GWF-(1,26421) -1.08312370E-05                    1_GWF-(1,14868)
        409          9          9 -1.79460241E-05                    1_GWF-(1,26350)  9.53894321E-06                    1_GWF-(1,14868)
        410          9         10  1.64143097E-05                    1_GWF-(1,26350)  5.73152095E-06                    1_GWF-(1,14869)
        411          9         11  2.20340242E-05                    1_GWF-(1,26486)  5.09990379E-06                    1_GWF-(1,14868)
        412          9         12  2.52832862E-05                    1_GWF-(1,26544)  5.95388190E-06                    1_GWF-(1,14867)
        413          9         13  3.75142777E-05                    1_GWF-(1,26422)  4.85188827E-06                    1_GWF-(1,14782)
        414          9         14  4.49523959E-05                    1_GWF-(1,26350)  5.47384122E-06                    1_GWF-(1,14867)
        415          9         15  3.30475486E-05                    1_GWF-(1,26422) -4.28661714E-06                    1_GWF-(1,14868)
        416          9         16 -2.84780718E-05                    1_GWF-(1,26422)  7.71455144E-06                    1_GWF-(1,14868)
        417          9         17 -2.46956323E-05                    1_GWF-(1,26350)  6.41427819E-06                    1_GWF-(1,14869)
        418          9         18 -3.05073566E-05                    1_GWF-(1,26623)  7.08442734E-06                    1_GWF-(1,14868)
        419          9         19 -3.07240010E-05                    1_GWF-(1,26622)  4.03146515E-06                    1_GWF-(1,14867)
        420          9         20  3.95687685E-05                    1_GWF-(1,26622) -3.00222399E-06                    1_GWF-(1,14868)
        421          9         21  3.28932999E-05                    1_GWF-(1,26649)  7.01324015E-06                    1_GWF-(1,14868)
        422          9         22 -3.33872854E-05                    1_GWF-(1,26420) -6.84838795E-06                    1_GWF-(1,14868)
        423          9         23  2.70744134E-05                    1_GWF-(1,26420)  6.57092873E-06                    1_GWF-(1,14868)
        424          9         24  2.60415240E-05                    1_GWF-(1,26487)  4.12565678E-06                    1_GWF-(1,14867)
        425          9         25  2.47815441E-05                    1_GWF-(1,26420)  2.37310898E-06                    1_GWF-(1,14782)
        426          9         26 -2.17667834E-05                    1_GWF-(1,26665)  2.74976830E-06                    1_GWF-(1,14868)
        427          9         27  2.27897740E-05                    1_GWF-(1,26588) -3.93701473E-06                    1_GWF-(1,14868)
        428          9         28 -2.26808889E-05                    1_GWF-(1,26588)  5.56719018E-06                    1_GWF-(1,14868)
        429          9         29  2.33931654E-05                    1_GWF-(1,26588) -4.69449206E-06                    1_GWF-(1,14868)
        430          9         30  2.28915667E-05                    1_GWF-(1,26589)  3.74742070E-06                    1_GWF-(1,14868)
        431          9         31  2.65605252E-05                    1_GWF-(1,26588)  1.78042331E-06                    1_GWF-(1,14867)
        432          9         32  2.96363402E-05                    1_GWF-(1,26665)  1.39655720E-06                    1_GWF-(1,14869)
        433          9         33  2.37039802E-05                    1_GWF-(1,26666)  3.41509690E-06                    1_GWF-(1,14868)
        434          9         34  1.93966181E-05                    1_GWF-(1,26622)  3.64967779E-06                    1_GWF-(1,14867)
        435          9         35 -2.08006419E-05                    1_GWF-(1,26665)  3.62265865E-06                    1_GWF-(1,14868)
        436          9         36 -2.06997562E-05                    1_GWF-(1,26649)  2.19428482E-06                    1_GWF-(1,14867)
        437          9         37 -1.99857679E-05                    1_GWF-(1,26622)  1.28305100E-06                    1_GWF-(1,14868)
        438          9         38 -1.93266532E-05                    1_GWF-(1,26588)  1.15440394E-06                    1_GWF-(1,14782)
        439          9         39 -2.01523819E-05                    1_GWF-(1,26586)  2.03058499E-06                    1_GWF-(1,14867)
        440          9         40 -1.85522189E-05                    1_GWF-(1,26623)  2.27872665E-06                    1_GWF-(1,14868)
        441          9         41 -1.39537602E-05                    1_GWF-(1,26420) -1.65810564E-06                    1_GWF-(1,14868)
        442          9         42 -1.51584211E-05                    1_GWF-(1,26218)  1.71017999E-06                    1_GWF-(1,14868)
        443          9         43 -1.62707712E-05                    1_GWF-(1,26217)  1.15442500E-06                    1_GWF-(1,14782)
        444          9         44 -1.29811826E-05                    1_GWF-(1,26218)  2.12100569E-06                    1_GWF-(1,14867)
        445          9         45  1.05740814E-05                    1_GWF-(1,26218) -2.19970174E-06                    1_GWF-(1,14867)
        446          9         46  1.20636578E-05                    1_GWF-(1,26422)  3.11250964E-06                    1_GWF-(1,14867)
        447          9         47  1.35294401E-05                    1_GWF-(1,26218) -2.81564126E-06                    1_GWF-(1,14867)
        448          9         48  1.63212037E-05                    1_GWF-(1,26217)  3.37913394E-06                    1_GWF-(1,14867)
        449          9         49  1.43217188E-05                    1_GWF-(1,26218) -3.01740867E-06                    1_GWF-(1,14867)
        450          9         50  1.05132751E-05                    1_GWF-(1,26217)  3.29347800E-06                    1_GWF-(1,14867)
        451         10          1 -9.89477887E-06                    1_GWF-(1,26217) -3.21990581E-06                    1_GWF-(1,14867)
        452         10          2 -1.25276520E-05                    1_GWF-(1,26218)  3.24007920E-06                    1_GWF-(1,14867)
        453         10          3 -1.39013776E-05                    1_GWF-(1,26217) -2.27314677E-06                    1_GWF-(1,14867)
        454         10          4 -1.11554761E-05                    1_GWF-(1,26218)  2.26429877E-06                    1_GWF-(1,14867)
        455         10          5 -1.02555083E-05                    1_GWF-(1,26422) -1.62873151E-06                    1_GWF-(1,14867)
        456         10          6 -1.03703841E-05                    1_GWF-(1,26486)  1.50447426E-06                    1_GWF-(1,14867)
        457         10          7 -9.79471884E-06                    1_GWF-(1,26544)  6.51000960E-07                    1_GWF-(1,14782)
        458         10          8  1.21638942E-05                    1_GWF-(1,26487)  5.86361602E-07                    1_GWF-(1,14868)
        459         10          9  1.93132807E-05                    1_GWF-(1,26486)  8.55210179E-07                    1_GWF-(1,14867)
        460         10         10  1.77687956E-05                    1_GWF-(1,26487) -6.16951656E-07                    1_GWF-(1,14867)
        461         10         11  1.02509500E-05                    1_GWF-(1,26420)  4.80402803E-07                    1_GWF-(1,14868)
        462         10         12  8.04969642E-06                    1_GWF-(1,26588)  5.25134684E-07                    1_GWF-(1,14869)
        463         10         13  8.55318183E-06                    1_GWF-(1,26589)  7.28041578E-07                    1_GWF-(1,14868)
        464         10         14  9.98297649E-06                    1_GWF-(1,26588)  6.90510480E-07                    1_GWF-(1,14867)
        465         10         15  8.07707539E-06                    1_GWF-(1,26543)  4.19126463E-07                    1_GWF-(1,14782)
        466         10         16  8.50394916E-06                    1_GWF-(1,26588)  4.62773812E-07                    1_GWF-(1,14868)
        467         10         17  6.10571361E-06                    1_GWF-(1,26543)  5.45454427E-07                    1_GWF-(1,14869)
        468         10         18 -4.43996019E-06                    1_GWF-(1,26648)  7.41026864E-07                    1_GWF-(1,14868)
        469         10         19 -5.97928389E-06                    1_GWF-(1,26665)  7.69489242E-07                    1_GWF-(1,14867)
        470         10         20 -5.93935734E-06                    1_GWF-(1,26666)  5.09470958E-07                    1_GWF-(1,14868)
        471         10         21 -7.54534161E-06                    1_GWF-(1,26649)  2.59509403E-07                    1_GWF-(1,14868)
        472         10         22 -5.72568056E-06                    1_GWF-(1,26622)  7.44941601E-07                    1_GWF-(1,14867)
        473         10         23 -3.47489620E-06                    1_GWF-(1,26486)  9.51557472E-07                    1_GWF-(1,14868)
        474         10         24 -3.84098058E-06                    1_GWF-(1,26420)  9.16552729E-07                    1_GWF-(1,14867)
        475         10         25 -4.14937963E-06                    1_GWF-(1,26421)  9.35415267E-07                    1_GWF-(1,14868)
        476         10         26 -4.54390593E-06                    1_GWF-(1,26350)  5.54546435E-07                    1_GWF-(1,14869)
        477         10         27  4.50513021E-06                    1_GWF-(1,26622)  2.88247883E-07                    1_GWF-(1,14867)
        478         10         28 -4.97810187E-06                    1_GWF-(1,26665)  5.80332968E-07                    1_GWF-(1,14782)
        479         10         29  3.60794522E-06                    1_GWF-(1,26588)  8.12557709E-07                    1_GWF-(1,14867)
        480         10         30  3.90599919E-06                    1_GWF-(1,26666)  1.08110315E-06                    1_GWF-(1,14868)
        481         10         31  4.16431092E-06                    1_GWF-(1,26486) -1.04862033E-06                    1_GWF-(1,14868)
        482         10         32  4.42449614E-06                    1_GWF-(1,26350)  1.30735051E-06                    1_GWF-(1,14868)
        483         10         33  4.53358961E-06                    1_GWF-(1,26422)  8.96166261E-07                    1_GWF-(1,14869)
        484         10         34  3.80330194E-06                    1_GWF-(1,26350)  9.74943387E-07                    1_GWF-(1,14868)
        485         10         35  3.56884058E-06                    1_GWF-(1,26422) -5.38080000E-07                    1_GWF-(1,14868)
        486         10         36 -3.69139740E-06                    1_GWF-(1,26422)  5.34796333E-07                    1_GWF-(1,14867)
        487         10         37 -4.50958241E-06                    1_GWF-(1,26350)  4.21220377E-07                    1_GWF-(1,14782)
        488         10         38 -3.05564637E-06                    1_GWF-(1,26422)  3.34933820E-07                    1_GWF-(1,14869)
        489         10         39  3.04479435E-06                    1_GWF-(1,26649)  4.65815768E-07                    1_GWF-(1,14868)
        490         10         40  2.76814589E-06                    1_GWF-(1,26622)  3.54574967E-07                    1_GWF-(1,14782)
        491         10         41 -2.35933773E-06                    1_GWF-(1,26422)  4.90540665E-07                    1_GWF-(1,14867)
        492         10         42  2.00559796E-06                    1_GWF-(1,26486)  3.55837721E-07                    1_GWF-(1,14782)
        493         10         43  2.28406630E-06                    1_GWF-(1,26350)  4.27312229E-07                    1_GWF-(1,14869)
        494         10         44  2.43578592E-06                    1_GWF-(1,26422)  7.42657559E-07                    1_GWF-(1,14868)
        495         10         45  1.95319248E-06                    1_GWF-(1,26544) -6.57172021E-07                    1_GWF-(1,14868)
        496         10         46  2.74520928E-06                    1_GWF-(1,26486)  5.54253309E-07                    1_GWF-(1,14868)
        497         10         47  2.10723967E-06                    1_GWF-(1,26487) -2.06944247E-07                    1_GWF-(1,14867)
        498         10         48  2.61793658E-06                    1_GWF-(1,26649) -3.00455689E-07                    1_GWF-(1,14868)
        499         10         49 -2.31060637E-06                    1_GWF-(1,26420)  5.71639331E-07                    1_GWF-(1,14868)
        500         10         50 -1.75057392E-06                    1_GWF-(1,26487) -7.03795347E-07                    1_GWF-(1,14868)
        501         11          1  1.91730670E-06                    1_GWF-(1,26487)  1.21902420E-06                    1_GWF-(1,14868)
        502         11          2  2.90938269E-06                    1_GWF-(1,26420) -5.67341789E-07                    1_GWF-(1,14868)
        503         11          3  2.43711830E-06                    1_GWF-(1,26487)  8.63384021E-08                    1_GWF-(1,10965)
        504         11          4 -2.44467245E-06                    1_GWF-(1,26487)  5.35495476E-07                    1_GWF-(1,14868)
        505         11          5 -2.69096119E-06                    1_GWF-(1,26486) -7.91771920E-07                    1_GWF-(1,14868)
        506         11          6 -2.02307723E-06                    1_GWF-(1,26544)  9.40657591E-07                    1_GWF-(1,14868)
        507         11          7 -1.41381640E-06                    1_GWF-(1,26422) -4.72332309E-07                    1_GWF-(1,14868)
        508         11          8 -1.60125139E-06                    1_GWF-(1,26350)  2.41998323E-07                    1_GWF-(1,14868)
        509         11          9  2.28694651E-06                    1_GWF-(1,26588)  2.85659938E-07                    1_GWF-(1,14867)
        510         11         10  2.43448735E-06                    1_GWF-(1,26543)  2.78932388E-07                    1_GWF-(1,14869)
        511         11         11  2.54730171E-06                    1_GWF-(1,26588)  4.17044218E-07                    1_GWF-(1,14868)
        512         11         12 -1.94745988E-06                    1_GWF-(1,26588)  2.71796526E-07                    1_GWF-(1,14869)
        513         11         13  2.04940640E-06                    1_GWF-(1,26588)  2.88166506E-07                    1_GWF-(1,14782)
        514         11         14  2.70302741E-06                    1_GWF-(1,26350)  4.04369569E-07                    1_GWF-(1,14867)
        515         11         15  2.14653029E-06                    1_GWF-(1,26422)  2.32207463E-07                    1_GWF-(1,14782)
        516         11         16 -2.35855003E-06                    1_GWF-(1,26649)  3.04322420E-07                    1_GWF-(1,14868)
        517         11         17 -2.31288535E-06                    1_GWF-(1,26622)  3.47096233E-07                    1_GWF-(1,14867)
        518         11         18 -1.91192455E-06                    1_GWF-(1,26623)  3.76423049E-07                    1_GWF-(1,14782)
        519         11         19 -2.61028209E-06                    1_GWF-(1,26422)  3.95552215E-07                    1_GWF-(1,14867)
        520         11         20 -3.07273889E-06                    1_GWF-(1,26350) -3.62528146E-07                    1_GWF-(1,14868)
        521         11         21 -2.26716714E-06                    1_GWF-(1,26422)  5.03880899E-07                    1_GWF-(1,14868)
        522         11         22 -1.34881486E-06                    1_GWF-(1,26420) -4.68342535E-07                    1_GWF-(1,14868)
        523         11         23  1.64883588E-06                    1_GWF-(1,26665)  5.26839817E-07                    1_GWF-(1,14868)
        524         11         24  1.60382554E-06                    1_GWF-(1,26663) -3.43893459E-07                    1_GWF-(1,14868)
        525         11         25  1.32494542E-06                    1_GWF-(1,26665)  2.35859013E-07                    1_GWF-(1,14782)
        526         11         26 -1.52592957E-06                    1_GWF-(1,26665)  1.76866437E-07                    1_GWF-(1,14867)
        527         11         27 -1.64144135E-06                    1_GWF-(1,26666)  1.86812003E-07                    1_GWF-(1,14869)
        528         11         28 -1.54832574E-06                    1_GWF-(1,26622)  3.57867296E-07                    1_GWF-(1,14868)
        529         11         29  1.17337963E-06                    1_GWF-(1,26622) -3.10363846E-07                    1_GWF-(1,14868)
        530         11         30  1.47353723E-06                    1_GWF-(1,26649)  2.36653443E-07                    1_GWF-(1,14868)
        531         11         31 -1.46971749E-06                    1_GWF-(1,26420)  1.05540618E-07                    1_GWF-(1,14867)
        532         11         32  1.75357591E-06                    1_GWF-(1,26665) -1.63351298E-07                    1_GWF-(1,14868)
        533         11         33  1.39746030E-06                    1_GWF-(1,26666)  2.77484506E-07                    1_GWF-(1,14868)
        534         11         34  1.04650325E-06                    1_GWF-(1,26665)  2.49266668E-07                    1_GWF-(1,14867)
        535         11         35 -1.19543718E-06                    1_GWF-(1,26665)  2.58936140E-07                    1_GWF-(1,14868)
        536         11         36 -9.38787139E-07                    1_GWF-(1,26649)  2.09204146E-07                    1_GWF-(1,14867)
        537         12          1 -6.26901052E-07                    1_GWF-(1,26218)  2.11786399E-07                    1_GWF-(1,14868)
 --------------------------------------------------------------------------------------------------------------------------------------


 UBDSV1 SAVING     FLOW-JA-FACE ON UNIT   1020 AT TIME STEP      1, STRESS PERIOD      1
 UBDSV06 SAVING       DATA-SPDIS IN MODEL ML               PACKAGE NPF             CONNECTED TO MODEL ML               PACKAGE NPF              ON UNIT   1020 AT TIME STEP      1, STRESS PERIOD      1
 UBDSV06 SAVING              WEL IN MODEL ML               PACKAGE ML              CONNECTED TO MODEL ML               PACKAGE WEL_0            ON UNIT   1020 AT TIME STEP      1, STRESS PERIOD      1
 UBDSV06 SAVING              DRN IN MODEL ML               PACKAGE ML              CONNECTED TO MODEL ML               PACKAGE DRN_0            ON UNIT   1020 AT TIME STEP      1, STRESS PERIOD      1
 UBDSV06 SAVING              RIV IN MODEL ML               PACKAGE ML              CONNECTED TO MODEL ML               PACKAGE RIV_0            ON UNIT   1020 AT TIME STEP      1, STRESS PERIOD      1
 UBDSV06 SAVING              GHB IN MODEL ML               PACKAGE ML              CONNECTED TO MODEL ML               PACKAGE GHB_0            ON UNIT   1020 AT TIME STEP      1, STRESS PERIOD      1
 UBDSV06 SAVING              RCH IN MODEL ML               PACKAGE ML              CONNECTED TO MODEL ML               PACKAGE RCHA_0           ON UNIT   1020 AT TIME STEP      1, STRESS PERIOD      1

 HEAD WILL BE SAVED ON UNIT 1021 AT END OF TIME STEP    1, STRESS PERIOD    1


  VOLUME BUDGET FOR ENTIRE MODEL AT END OF TIME STEP    1, STRESS PERIOD   1
  ---------------------------------------------------------------------------------------------------

     CUMULATIVE VOLUME      L**3       RATES FOR THIS TIME STEP      L**3/T          PACKAGE NAME    
     ------------------                 ------------------------                     ----------------

           IN:                                      IN:
           ---                                      ---
                 WEL =           0.0000                   WEL =           0.0000     WEL_0           
                 DRN =           0.0000                   DRN =           0.0000     DRN_0           
                 RIV =           7.3558                   RIV =           0.9195     RIV_0           
                 GHB =          20.5995                   GHB =           2.5749     GHB_0           
                 RCH =           3.8770                   RCH =           0.4846     RCHA_0          

            TOTAL IN =          31.8322              TOTAL IN =           3.9790

          OUT:                                     OUT:
          ----                                     ----
                 WEL =           1.3838                   WEL =           0.1730     WEL_0           
                 DRN =           1.5394                   DRN =           0.1924     DRN_0           
                 RIV =          28.7487                   RIV =           3.5936     RIV_0           
                 GHB =           0.1604                   GHB =       2.0045E-02     GHB_0           
                 RCH =           0.0000                   RCH =           0.0000     RCHA_0          

           TOTAL OUT =          31.8322             TOTAL OUT =           3.9790

            IN - OUT =      -1.2244E-05              IN - OUT =      -1.5305E-06

 PERCENT DISCREPANCY =          -0.00     PERCENT DISCREPANCY =          -0.00




         TIME SUMMARY AT END OF TIME STEP    1 IN STRESS PERIOD    1
                    SECONDS     MINUTES      HOURS       DAYS        YEARS
                    -----------------------------------------------------------
   TIME STEP LENGTH  8.0000     0.13333     2.22222E-03 9.25926E-05 2.53505E-07
 STRESS PERIOD TIME  8.0000     0.13333     2.22222E-03 9.25926E-05 2.53505E-07
         TOTAL TIME  8.0000     0.13333     2.22222E-03 9.25926E-05 2.53505E-07


end timestep

