                                   MODFLOW 6
                U.S. GEOLOGICAL SURVEY MODULAR HYDROLOGIC MODEL
                            VERSION 6.2.2 07/30/2021

   MODFLOW 6 compiled Jul 31 2021 14:22:53 with IFORT compiler (ver. 19.10.3)

This software has been approved for release by the U.S. Geological 
Survey (USGS). Although the software has been subjected to rigorous 
review, the USGS reserves the right to update the software as needed 
pursuant to further analysis and review. No warranty, expressed or 
implied, is made by the USGS or the U.S. Government as to the 
functionality of the software and related material nor shall the 
fact of release constitute any such warranty. Furthermore, the 
software is released on condition that neither the USGS nor the U.S. 
Government shall be held liable for any damages resulting from its 
authorized or unauthorized use. Also refer to the USGS Water 
Resources Software User Rights Notice for complete use, copyright, 
and distribution information.


System command used to initiate simulation:
mf6

MODFLOW was compiled using uniform precision.

Real Variables
  KIND: 8
  TINY (smallest non-zero value):    2.225074-308
  HUGE (largest value):    1.797693+308
  PRECISION: 15
  BIT SIZE: 64

Integer Variables
  KIND: 4
  HUGE (largest value): 2147483647
  BIT SIZE: 32

Long Integer Variables
  KIND: 8
  HUGE (largest value): 9223372036854775807
  BIT SIZE: 64

Logical Variables
  KIND: 4
  BIT SIZE: 32
 

 OPENED mfsim.nam
 FILE TYPE:NAM   UNIT 1001   STATUS:OLD                 
 FORMAT:FORMATTED              ACCESS:SEQUENTIAL          
 ACTION:READ                

 # File generated by Flopy version 3.3.5 on 06/01/2022 at 18:12:40.

 READING SIMULATION OPTIONS
 END OF SIMULATION OPTIONS

 READING SIMULATION TIMING

 OPENED mfsim.tdis
 FILE TYPE:TDIS   UNIT 1002   STATUS:OLD                 
 FORMAT:FORMATTED              ACCESS:SEQUENTIAL          
 ACTION:READ                


 TDIS -- TEMPORAL DISCRETIZATION PACKAGE,
 VERSION 1 : 11/13/2014 - INPUT READ FROM UNIT 1002
 # File generated by Flopy version 3.3.5 on 06/01/2022 at 18:12:40.
 PROCESSING TDIS OPTIONS
    SIMULATION TIME UNIT IS SECONDS
 END OF TDIS OPTIONS
 PROCESSING TDIS DIMENSIONS
    1 STRESS PERIOD(S) IN SIMULATION
 END OF TDIS DIMENSIONS
 PROCESSING TDIS PERIODDATA


 STRESS PERIOD     LENGTH       TIME STEPS     MULTIPLIER FOR DELT
 ----------------------------------------------------------------------------
        1         99.00000          1                    1.000
 END OF TDIS PERIODDATA
 END OF SIMULATION TIMING

 READING SIMULATION MODELS
    GWF6 model ML will be created as model 1
 END OF SIMULATION MODELS

 READING SIMULATION EXCHANGES
 END OF SIMULATION EXCHANGES

 READING SOLUTIONGROUP

 Creating solution: SLN_1           

 OPENED mfsim.ims
 FILE TYPE:IMS   UNIT 1015   STATUS:OLD                 
 FORMAT:FORMATTED              ACCESS:SEQUENTIAL          
 ACTION:READ                

 END OF SIMULATION SOLUTIONGROUP

 IMS -- ITERATIVE MODEL SOLUTION PACKAGE, VERSION 6, 4/28/2017
         INPUT READ FROM UNIT 1015
 # File generated by Flopy version 3.3.5 on 06/01/2022 at 18:12:40.

 PROCESSING IMS OPTIONS
 END OF IMS OPTIONS

 PROCESSING IMS NONLINEAR
 END OF IMS NONLINEAR DATA
 ***UNDER-RELAXATION WILL NOT BE USED***
 
 ***IMS LINEAR SOLVER WILL BE USED***

 IMSLINEAR -- UNSTRUCTURED LINEAR SOLUTION PACKAGE, VERSION 8, 04/28/2017

 PROCESSING LINEAR DATA
 END OF LINEAR DATA
 
 OUTER ITERATION CONVERGENCE CRITERION    (DVCLOSE) =    0.100000E-04
 MAXIMUM NUMBER OF OUTER ITERATIONS        (MXITER) = 100
 SOLVER PRINTOUT INDEX                     (IPRIMS) = 2
 NONLINEAR ITERATION METHOD            (NONLINMETH) = 0
 LINEAR SOLUTION METHOD                   (LINMETH) = 1

       SOLUTION BY THE        CONJUGATE-GRADIENT       METHOD
 ------------------------------------------------------------------
 MAXIMUM OF 100 CALLS OF SOLUTION ROUTINE
 MAXIMUM OF 50 INTERNAL ITERATIONS PER CALL TO SOLUTION ROUTINE
 LINEAR ACCELERATION METHOD            = CG        
 MATRIX PRECONDITIONING TYPE           = INCOMPLETE LU       
 MATRIX SCALING APPROACH               = NO SCALING          
 MATRIX REORDERING APPROACH            = ORIGINAL ORDERING        
 NUMBER OF ORTHOGONALIZATIONS          = 0
 HEAD CHANGE CRITERION FOR CLOSURE     =    0.10000E-05
 RESIDUAL CHANGE CRITERION FOR CLOSURE =    0.10000E-04
 RESIDUAL CONVERGENCE OPTION           = 1
 RESIDUAL CONVERGENCE NORM             = INFINITY NORM S 
 RELAXATION FACTOR                     =    0.00000E+00



 
    Solving:  Stress period:     1    Time step:     1
 
1
                            STRESS PERIOD NO. 1, LENGTH =   99.00000    
                            -----------------------------------------------
                            NUMBER OF TIME STEPS = 1
                            MULTIPLIER FOR DELT =     1.000
                            INITIAL TIME STEP SIZE =   99.00000    

 SLN_1 OUTER ITERATION SUMMARY
 ----------------------------------------------------------------------------------------------------------
                                OUTER      INNER                    STEP   MAXIMUM CHANGE MODEL-(CELLID) OR
 OUTER ITERATION STEP       ITERATION  ITERATION  MAXIMUM CHANGE SUCCESS             MODEL-PACKAGE-(NUMBER)
 ----------------------------------------------------------------------------------------------------------
 Model                              1         50       180.55233                            1_GWF-(1,26517)
 Model                              2         50      -175.72144                            1_GWF-(1,26517)
 Model                              3         50      -2.1768493                             1_GWF-(1,2584)
 Model                              4         50      -1.0499279                             1_GWF-(1,3024)
 Model                              5         50     -0.19116417                             1_GWF-(1,2595)
 Model                              6         50 -9.73990929E-02                             1_GWF-(1,3024)
 Model                              7         50 -1.98796835E-02                             1_GWF-(1,2593)
 Model                              8         50 -9.94643553E-03                             1_GWF-(1,3024)
 Model                              9         50 -2.11668547E-03                             1_GWF-(1,2593)
 Model                             10         50 -1.05890179E-03                             1_GWF-(1,3024)
 Model                             11         50 -2.25656618E-04                             1_GWF-(1,2593)
 Model                             12         50 -1.15154328E-04                             1_GWF-(1,3005)
 Model                             13         50 -2.45611855E-05                             1_GWF-(1,2596)
 Model                             14         47 -1.21399530E-05                             1_GWF-(1,3005)
 Model                             15          1 -5.36602300E-07       *                    1_GWF-(1,26648)
 ----------------------------------------------------------------------------------------------------------


 15 CALLS TO NUMERICAL SOLUTION IN TIME STEP 1 STRESS PERIOD 1
 698 TOTAL ITERATIONS

 SLN_1 INNER ITERATION SUMMARY
 --------------------------------------------------------------------------------------------------------------------------------------
      TOTAL      OUTER      INNER                                                            MAXIMUM                                   
  ITERATION  ITERATION  ITERATION  MAXIMUM CHANGE      MAXIMUM CHANGE MODEL-(CELLID)        RESIDUAL    MAXIMUM RESIDUAL MODEL-(CELLID)
 --------------------------------------------------------------------------------------------------------------------------------------
          1          1          1       25.376046                    1_GWF-(1,26458)      0.50938762                    1_GWF-(1,11179)
          2          1          2       32.732903                    1_GWF-(1,26517)     -0.50553118                    1_GWF-(1,11179)
          3          1          3       45.195314                    1_GWF-(1,26515)      0.45312657                    1_GWF-(1,10966)
          4          1          4       37.546429                    1_GWF-(1,26513)      0.38577886                    1_GWF-(1,11208)
          5          1          5       21.888146                    1_GWF-(1,26647)      0.28059617                    1_GWF-(1,11207)
          6          1          6       26.607644                    1_GWF-(1,26649)     -0.32896585                    1_GWF-(1,11207)
          7          1          7       24.856628                    1_GWF-(1,26622)      0.38545446                    1_GWF-(1,10966)
          8          1          8       22.931174                    1_GWF-(1,26623)      0.34333360                    1_GWF-(1,10960)
          9          1          9       20.309163                    1_GWF-(1,26589)      0.21074192                    1_GWF-(1,11206)
         10          1         10       19.876108                    1_GWF-(1,26486)      0.22440820                    1_GWF-(1,10967)
         11          1         11       16.413900                    1_GWF-(1,26544)      0.28089913                    1_GWF-(1,10966)
         12          1         12       11.884216                    1_GWF-(1,26420)      0.22362982                    1_GWF-(1,10960)
         13          1         13       9.6732429                    1_GWF-(1,26422)      0.20646015                    1_GWF-(1,14799)
         14          1         14       7.6793627                    1_GWF-(1,26350)      0.16187835                    1_GWF-(1,14798)
         15          1         15      -8.1384274                    1_GWF-(1,26623)      0.19444392                    1_GWF-(1,10966)
         16          1         16      -9.7972216                    1_GWF-(1,26622)      0.15153114                    1_GWF-(1,10960)
         17          1         17      -11.301200                    1_GWF-(1,26623)      0.18608543                    1_GWF-(1,11206)
         18          1         18      -11.199912                    1_GWF-(1,26589)      0.22700445                    1_GWF-(1,14799)
         19          1         19      -14.460029                    1_GWF-(1,26588)      0.17599218                    1_GWF-(1,14798)
         20          1         20      -13.211342                    1_GWF-(1,26543)      0.16442250                    1_GWF-(1,14799)
         21          1         21      -10.539289                    1_GWF-(1,26487)     -0.10975881                    1_GWF-(1,11206)
         22          1         22      -10.960567                    1_GWF-(1,26486)      0.16014754                    1_GWF-(1,11206)
         23          1         23      -9.3293810                    1_GWF-(1,26487)      0.20035973                    1_GWF-(1,14799)
         24          1         24       12.057271                    1_GWF-(1,11618)      0.16564992                    1_GWF-(1,14798)
         25          1         25       10.097134                    1_GWF-(1,11707)      0.15935489                    1_GWF-(1,14799)
         26          1         26       10.305664                    1_GWF-(1,26487)     -0.12951465                    1_GWF-(1,11206)
         27          1         27       10.254045                    1_GWF-(1,26420)      0.19346388                    1_GWF-(1,11206)
         28          1         28       8.3059108                    1_GWF-(1,26487)      0.25300548                    1_GWF-(1,14799)
         29          1         29       6.8782139                    1_GWF-(1,26588)      0.21951231                    1_GWF-(1,14798)
         30          1         30       5.8876291                    1_GWF-(1,26623)      0.27543757                    1_GWF-(1,14799)
         31          1         31      -5.5851902                    1_GWF-(1,11621)     -0.28221677                    1_GWF-(1,14799)
         32          1         32       5.9662863                    1_GWF-(1,26422)      0.26117691                    1_GWF-(1,14799)
         33          1         33       5.3024185                    1_GWF-(1,11624)     -0.17131400                    1_GWF-(1,14799)
         34          1         34       4.3470540                    1_GWF-(1,26422)      0.13111882                    1_GWF-(1,14799)
         35          1         35      -4.2861187                    1_GWF-(1,26422) -6.84006013E-02                    1_GWF-(1,14799)
         36          1         36       4.0023098                    1_GWF-(1,11621)  4.57589118E-02                    1_GWF-(1,11206)
         37          1         37      -4.0267212                    1_GWF-(1,26422) -7.97040863E-02                    1_GWF-(1,10966)
         38          1         38      -4.2474176                    1_GWF-(1,26350)     -0.14063734                    1_GWF-(1,14799)
         39          1         39      -4.0312902                    1_GWF-(1,26422)     -0.14857204                    1_GWF-(1,14798)
         40          1         40       3.9412680                    1_GWF-(1,11621)     -0.27032343                    1_GWF-(1,14799)
         41          1         41      -3.0448923                    1_GWF-(1,11486)      0.25770916                    1_GWF-(1,14799)
         42          1         42      -3.6829466                    1_GWF-(1,11619)     -0.39941007                    1_GWF-(1,14799)
         43          1         43       2.8403489                    1_GWF-(1,26350)      0.40133022                    1_GWF-(1,14799)
         44          1         44       2.6493932                    1_GWF-(1,26422)     -0.59311731                    1_GWF-(1,14799)
         45          1         45      -3.6108301                    1_GWF-(1,11622)      0.57888842                    1_GWF-(1,14799)
         46          1         46       2.3092389                    1_GWF-(1,11465)     -0.83649766                    1_GWF-(1,14799)
         47          1         47       2.6481033                    1_GWF-(1,11613)      0.92317226                    1_GWF-(1,14799)
         48          1         48      -2.8847714                    1_GWF-(1,11616)      -1.1170604                    1_GWF-(1,14799)
         49          1         49       2.1922076                    1_GWF-(1,11661)      0.87467948                    1_GWF-(1,14799)
         50          1         50       2.7637206                    1_GWF-(1,11467)     -0.82061487                    1_GWF-(1,14799)
         51          2          1      -177.42731                    1_GWF-(1,26519)     -0.30003421                    1_GWF-(1,26458)
         52          2          2      -69.796516                    1_GWF-(1,26452)     -0.27001310                    1_GWF-(1,14799)
         53          2          3      -40.881637                    1_GWF-(1,26637)      0.30918643                    1_GWF-(1,14799)
         54          2          4      -37.513242                    1_GWF-(1,26665)     -0.41249503                    1_GWF-(1,14799)
         55          2          5      -25.775843                    1_GWF-(1,26623)      0.41455379                    1_GWF-(1,14799)
         56          2          6      -21.516743                    1_GWF-(1,26588)     -0.55101402                    1_GWF-(1,14799)
         57          2          7      -20.712648                    1_GWF-(1,26543)      0.65475356                    1_GWF-(1,14799)
         58          2          8      -14.748336                    1_GWF-(1,26544)     -0.80183434                    1_GWF-(1,14799)
         59          2          9      -11.500301                    1_GWF-(1,26487)      0.59504989                    1_GWF-(1,14799)
         60          2         10      -8.2763037                    1_GWF-(1,26348)     -0.35054121                    1_GWF-(1,14799)
         61          2         11      -8.5890027                    1_GWF-(1,26350)     -0.15449262                    1_GWF-(1,14799)
         62          2         12      -4.8676336                    1_GWF-(1,26217)     -0.22446842                    1_GWF-(1,14801)
         63          2         13      -3.3588416                    1_GWF-(1,26622)     -0.39297145                    1_GWF-(1,14799)
         64          2         14      -2.7552234                    1_GWF-(1,26623)     -0.25083735                    1_GWF-(1,14801)
         65          2         15      -2.9066670                    1_GWF-(1,26622)     -0.14763834                    1_GWF-(1,14799)
         66          2         16      -2.8425046                    1_GWF-(1,26623)     -0.36428106                    1_GWF-(1,14799)
         67          2         17       3.6110028                    1_GWF-(1,26422)      0.54553794                    1_GWF-(1,14799)
         68          2         18       3.4340682                    1_GWF-(1,26350)     -0.51900638                    1_GWF-(1,14799)
         69          2         19       3.3248726                    1_GWF-(1,26588)      0.32194018                    1_GWF-(1,14799)
         70          2         20       3.3528632                    1_GWF-(1,26543) -5.05742957E-02                    1_GWF-(1,14800)
         71          2         21       4.5288414                    1_GWF-(1,26588)     -0.37808018                    1_GWF-(1,14799)
         72          2         22       5.1764100                    1_GWF-(1,26543)      0.44841532                    1_GWF-(1,14799)
         73          2         23       2.7416158                    1_GWF-(1,26542)     -0.43018069                    1_GWF-(1,14799)
         74          2         24      -4.2132904                    1_GWF-(1,26487)      0.20070029                    1_GWF-(1,14799)
         75          2         25      -5.1667207                    1_GWF-(1,26486)  6.21461820E-02                    1_GWF-(1,14799)
         76          2         26      -5.4701751                    1_GWF-(1,26487)     -0.26034127                    1_GWF-(1,14799)
         77          2         27      -3.4596654                    1_GWF-(1,26420)      0.33752734                    1_GWF-(1,14799)
         78          2         28       2.2169985                    1_GWF-(1,26486)      0.20614458                    1_GWF-(1,14801)
         79          2         29      -2.0597881                    1_GWF-(1,26327)      0.17085214                    1_GWF-(1,14800)
         80          2         30       1.7883688                    1_GWF-(1,26420)      0.16753842                    1_GWF-(1,14801)
         81          2         31      -1.6390972                    1_GWF-(1,26674)      0.15334228                    1_GWF-(1,14800)
         82          2         32      -1.5191860                    1_GWF-(1,26168)      0.16934623                    1_GWF-(1,14801)
         83          2         33       1.5857439                    1_GWF-(1,26674)      0.17754006                    1_GWF-(1,14800)
         84          2         34       1.6374413                    1_GWF-(1,26586)      0.24553213                    1_GWF-(1,14801)
         85          2         35       1.7030419                    1_GWF-(1,26350)     -0.26807246                    1_GWF-(1,14801)
         86          2         36       2.0241508                    1_GWF-(1,26649)      0.35698740                    1_GWF-(1,14799)
         87          2         37       1.2602988                    1_GWF-(1,26544)     -0.41583550                    1_GWF-(1,14799)
         88          2         38      -1.2472365                    1_GWF-(1,26648)      0.46949692                    1_GWF-(1,14799)
         89          2         39      -1.3680963                    1_GWF-(1,26649)     -0.39734262                    1_GWF-(1,14799)
         90          2         40      -1.3661356                    1_GWF-(1,26666)      0.34264085                    1_GWF-(1,14799)
         91          2         41     -0.99681696                    1_GWF-(1,26421)     -0.24065326                    1_GWF-(1,14799)
         92          2         42       1.0065155                    1_GWF-(1,26665)      0.21188629                    1_GWF-(1,14799)
         93          2         43      -1.0009710                    1_GWF-(1,26217)     -0.11835812                    1_GWF-(1,14799)
         94          2         44     -0.84418964                    1_GWF-(1,26329)      0.14808721                    1_GWF-(1,14799)
         95          2         45      -1.1718944                    1_GWF-(1,26421)  8.01461420E-02                    1_GWF-(1,14798)
         96          2         46      -1.3086705                    1_GWF-(1,26420)  8.06992471E-02                    1_GWF-(1,14799)
         97          2         47      -1.5093630                    1_GWF-(1,26422)  3.56791107E-02                    1_GWF-(1,10961)
         98          2         48      -1.4571513                    1_GWF-(1,26350)  6.06959098E-02                    1_GWF-(1,14800)
         99          2         49       1.6044490                    1_GWF-(1,26350)      0.10683122                    1_GWF-(1,14799)
        100          2         50       2.0136274                    1_GWF-(1,26422)      0.10114078                    1_GWF-(1,14800)
        101          3          1      -1.0010828                    1_GWF-(1,11427)  5.77889378E-02                    1_GWF-(1,14799)
        102          3          2       1.2187703                    1_GWF-(1,26486)      0.12285134                    1_GWF-(1,14800)
        103          3          3       1.6636984                    1_GWF-(1,26350)      0.12699692                    1_GWF-(1,14799)
        104          3          4       1.6249033                    1_GWF-(1,26422)  4.87435265E-02                    1_GWF-(1,14800)
        105          3          5       1.3063281                    1_GWF-(1,26350)  3.35383351E-02                    1_GWF-(1,14801)
        106          3          6      0.95547727                    1_GWF-(1,11424)  3.93312577E-02                    1_GWF-(1,14799)
        107          3          7     -0.85416759                    1_GWF-(1,26422)  3.71469742E-02                    1_GWF-(1,14798)
        108          3          8      -1.0154552                    1_GWF-(1,11424)  9.16623351E-02                    1_GWF-(1,14799)
        109          3          9       1.4808245                    1_GWF-(1,11424)     -0.11099177                    1_GWF-(1,14799)
        110          3         10     -0.86392294                    1_GWF-(1,26649)      0.15775474                    1_GWF-(1,14799)
        111          3         11     -0.73976953                    1_GWF-(1,11424)     -0.15375846                    1_GWF-(1,14799)
        112          3         12       1.5837958                    1_GWF-(1,11424)      0.21471444                    1_GWF-(1,14799)
        113          3         13      -1.1832098                    1_GWF-(1,11424)     -0.21722930                    1_GWF-(1,14799)
        114          3         14     -0.65223353                    1_GWF-(1,11423)      0.19481586                    1_GWF-(1,14799)
        115          3         15       1.1575376                    1_GWF-(1,11424)     -0.18378652                    1_GWF-(1,14799)
        116          3         16      -1.2126781                    1_GWF-(1,11424)      0.17986892                    1_GWF-(1,14799)
        117          3         17     -0.56281263                    1_GWF-(1,11423)     -0.11966336                    1_GWF-(1,14801)
        118          3         18      0.74426960                    1_GWF-(1,11424)  9.13474851E-02                    1_GWF-(1,14801)
        119          3         19      -1.1653163                    1_GWF-(1,11424) -8.35633726E-02                    1_GWF-(1,14801)
        120          3         20      0.80389568                    1_GWF-(1,26674)  7.14997316E-02                    1_GWF-(1,14801)
        121          3         21      0.47509542                    1_GWF-(1,26595) -5.64612913E-02                    1_GWF-(1,14801)
        122          3         22     -0.92491262                    1_GWF-(1,11424)  6.18372752E-02                    1_GWF-(1,14801)
        123          3         23      0.85379007                    1_GWF-(1,11424) -6.50657377E-02                    1_GWF-(1,14801)
        124          3         24      0.71338606                    1_GWF-(1,26486) -5.70943585E-02                    1_GWF-(1,14799)
        125          3         25       1.0398753                    1_GWF-(1,26487)  4.65658273E-02                    1_GWF-(1,14799)
        126          3         26       1.1193018                    1_GWF-(1,26420) -2.18327887E-02                    1_GWF-(1,14801)
        127          3         27      0.92449908                    1_GWF-(1,26487)  5.03871497E-02                    1_GWF-(1,14801)
        128          3         28     -0.84063448                    1_GWF-(1,11424) -6.77662487E-02                    1_GWF-(1,14801)
        129          3         29     -0.92110106                    1_GWF-(1,26543) -7.64078477E-02                    1_GWF-(1,14799)
        130          3         30     -0.83348758                    1_GWF-(1,26588)  4.05200612E-02                    1_GWF-(1,14799)
        131          3         31      0.93466838                    1_GWF-(1,26588) -2.65163776E-02                    1_GWF-(1,14801)
        132          3         32      0.86011790                    1_GWF-(1,26543) -5.24826905E-02                    1_GWF-(1,14800)
        133          3         33     -0.68923813                    1_GWF-(1,26543)  7.64128733E-02                    1_GWF-(1,14799)
        134          3         34     -0.68505552                    1_GWF-(1,11424) -8.45123287E-02                    1_GWF-(1,14799)
        135          3         35      0.68161945                    1_GWF-(1,26623)  4.32935869E-02                    1_GWF-(1,14799)
        136          3         36      0.67450123                    1_GWF-(1,26665) -1.55708932E-02                    1_GWF-(1,14799)
        137          3         37      0.66000501                    1_GWF-(1,26623) -3.55309366E-02                    1_GWF-(1,14800)
        138          3         38      0.71811487                    1_GWF-(1,26622) -4.43111275E-02                    1_GWF-(1,14801)
        139          3         39      0.43521671                    1_GWF-(1,11424) -5.69328021E-02                    1_GWF-(1,14799)
        140          3         40     -0.47009582                    1_GWF-(1,26665) -2.80601079E-02                    1_GWF-(1,14798)
        141          3         41     -0.51288506                    1_GWF-(1,26648) -1.71947906E-02                    1_GWF-(1,14801)
        142          3         42     -0.67130857                    1_GWF-(1,26665) -4.65046905E-02                    1_GWF-(1,14799)
        143          3         43     -0.59091689                    1_GWF-(1,26666)  5.94633642E-02                    1_GWF-(1,14799)
        144          3         44     -0.38674211                    1_GWF-(1,26665) -8.00265653E-02                    1_GWF-(1,14799)
        145          3         45      0.61360423                    1_GWF-(1,26665)  8.57038016E-02                    1_GWF-(1,14799)
        146          3         46      0.63751112                    1_GWF-(1,26647)     -0.10359533                    1_GWF-(1,14799)
        147          3         47     -0.46952921                    1_GWF-(1,25816)      0.10319954                    1_GWF-(1,14799)
        148          3         48     -0.53997616                    1_GWF-(1,11412) -9.37198501E-02                    1_GWF-(1,14799)
        149          3         49     -0.75171213                    1_GWF-(1,26649)  9.00211214E-02                    1_GWF-(1,14799)
        150          3         50     -0.71023912                    1_GWF-(1,26623) -7.41099862E-02                    1_GWF-(1,14799)
        151          4          1      0.33235974                    1_GWF-(1,26623)  6.41403693E-02                    1_GWF-(1,14799)
        152          4          2      0.37042050                    1_GWF-(1,26649) -7.67375584E-02                    1_GWF-(1,14799)
        153          4          3      0.29647195                    1_GWF-(1,26160)  7.00940270E-02                    1_GWF-(1,14799)
        154          4          4      0.30317817                    1_GWF-(1,25801) -7.24049761E-02                    1_GWF-(1,14799)
        155          4          5     -0.24907996                    1_GWF-(1,26422)  6.08192233E-02                    1_GWF-(1,14799)
        156          4          6     -0.23289438                    1_GWF-(1,26665) -5.00036054E-02                    1_GWF-(1,14799)
        157          4          7     -0.21974207                    1_GWF-(1,26666)  4.24572985E-02                    1_GWF-(1,14799)
        158          4          8     -0.27316454                    1_GWF-(1,26665) -3.70117712E-02                    1_GWF-(1,14799)
        159          4          9      0.38492013                    1_GWF-(1,26665) -1.74475788E-02                    1_GWF-(1,14801)
        160          4         10      0.35429154                    1_GWF-(1,26666)  9.52627397E-03                    1_GWF-(1,10966)
        161          4         11      0.38464293                    1_GWF-(1,26665) -2.82076073E-02                    1_GWF-(1,14799)
        162          4         12      0.23214504                    1_GWF-(1,26622)  2.78804665E-02                    1_GWF-(1,14799)
        163          4         13     -0.27634878                    1_GWF-(1,26622) -2.30304546E-02                    1_GWF-(1,14799)
        164          4         14      0.32265663                    1_GWF-(1,26622) -1.40789444E-02                    1_GWF-(1,14801)
        165          4         15      0.30313371                    1_GWF-(1,26623) -1.12370330E-02                    1_GWF-(1,14798)
        166          4         16     -0.30748635                    1_GWF-(1,26623) -2.80913482E-02                    1_GWF-(1,14799)
        167          4         17     -0.27055258                    1_GWF-(1,26622)  2.82542483E-02                    1_GWF-(1,14799)
        168          4         18      0.20342062                    1_GWF-(1,26674) -2.26785369E-02                    1_GWF-(1,14799)
        169          4         19     -0.32806860                    1_GWF-(1,26543) -1.56596286E-02                    1_GWF-(1,14801)
        170          4         20     -0.35470294                    1_GWF-(1,26588)  7.40255022E-03                    1_GWF-(1,10966)
        171          4         21     -0.28972419                    1_GWF-(1,26543) -2.10217426E-02                    1_GWF-(1,14799)
        172          4         22      0.19910893                    1_GWF-(1,26543) -2.10819372E-02                    1_GWF-(1,14801)
        173          4         23      0.20602237                    1_GWF-(1,26487) -2.06188497E-02                    1_GWF-(1,14800)
        174          4         24      0.25794128                    1_GWF-(1,26486) -1.50074816E-02                    1_GWF-(1,14801)
        175          4         25      0.34700053                    1_GWF-(1,26487)  8.86280323E-03                    1_GWF-(1,10966)
        176          4         26      0.33127401                    1_GWF-(1,26420) -1.73314859E-02                    1_GWF-(1,14799)
        177          4         27      0.23660979                    1_GWF-(1,26487) -1.98359442E-02                    1_GWF-(1,14801)
        178          4         28      0.16111550                    1_GWF-(1,26350)  1.87580176E-02                    1_GWF-(1,14801)
        179          4         29     -0.17108154                    1_GWF-(1,11412) -1.71111965E-02                    1_GWF-(1,14801)
        180          4         30      0.12671891                    1_GWF-(1,26606)  1.86741267E-02                    1_GWF-(1,10966)
        181          4         31     -0.12094027                    1_GWF-(1,26674) -2.04108239E-02                    1_GWF-(1,10966)
        182          4         32     -0.20820273                    1_GWF-(1,11412)  2.36755181E-02                    1_GWF-(1,10966)
        183          4         33     -0.13876206                    1_GWF-(1,26643) -2.33711544E-02                    1_GWF-(1,10966)
        184          4         34     -0.12458112                    1_GWF-(1,26217)  2.43410103E-02                    1_GWF-(1,10966)
        185          4         35      0.18049030                    1_GWF-(1,11424) -2.13921600E-02                    1_GWF-(1,10966)
        186          4         36     -0.16177726                    1_GWF-(1,11424)  2.00418522E-02                    1_GWF-(1,14801)
        187          4         37  9.22692559E-02                    1_GWF-(1,26674)  1.54665498E-02                    1_GWF-(1,14800)
        188          4         38      0.14603691                    1_GWF-(1,11424)  1.92688294E-02                    1_GWF-(1,14799)
        189          4         39     -0.21184125                    1_GWF-(1,11424) -1.53367105E-02                    1_GWF-(1,14799)
        190          4         40      0.10732006                    1_GWF-(1,11424)  1.93994957E-02                    1_GWF-(1,14799)
        191          4         41  9.84195922E-02                    1_GWF-(1,26544) -1.79031670E-02                    1_GWF-(1,14799)
        192          4         42     -0.18500650                    1_GWF-(1,11424)  2.08196120E-02                    1_GWF-(1,14799)
        193          4         43      0.15155876                    1_GWF-(1,11424) -1.40550629E-02                    1_GWF-(1,14799)
        194          4         44      0.16800248                    1_GWF-(1,26422)  2.11554130E-02                    1_GWF-(1,14799)
        195          4         45     -0.14887790                    1_GWF-(1,11424)  1.60422485E-02                    1_GWF-(1,10966)
        196          4         46      0.17474628                    1_GWF-(1,11424)  1.39457073E-02                    1_GWF-(1,14799)
        197          4         47     -0.14117688                    1_GWF-(1,26422)  1.57690793E-02                    1_GWF-(1,10966)
        198          4         48     -0.11412412                    1_GWF-(1,26350) -1.01986724E-02                    1_GWF-(1,10966)
        199          4         49     -0.12055859                    1_GWF-(1,26422)  1.09095244E-02                    1_GWF-(1,10966)
        200          4         50     -0.13165114                    1_GWF-(1,26350)  5.11069594E-03                    1_GWF-(1,10961)
        201          5          1  7.45568096E-02                    1_GWF-(1,26350)  7.53500673E-03                    1_GWF-(1,10966)
        202          5          2  8.92690982E-02                    1_GWF-(1,26486)  5.27765295E-03                    1_GWF-(1,10961)
        203          5          3      0.10484293                    1_GWF-(1,26350)  6.26999573E-03                    1_GWF-(1,10966)
        204          5          4      0.12051531                    1_GWF-(1,26422)  3.29505572E-03                    1_GWF-(1,14800)
        205          5          5      0.10306304                    1_GWF-(1,26350)  2.96210874E-03                    1_GWF-(1,14801)
        206          5          6 -9.89978652E-02                    1_GWF-(1,26350)  3.64654625E-03                    1_GWF-(1,10966)
        207          5          7     -0.11090782                    1_GWF-(1,26422)  3.49106729E-03                    1_GWF-(1,10961)
        208          5          8 -8.09610839E-02                    1_GWF-(1,26350)  7.11831975E-03                    1_GWF-(1,10966)
        209          5          9 -5.90338422E-02                    1_GWF-(1,26486) -6.02950614E-03                    1_GWF-(1,10966)
        210          5         10  5.58135852E-02                    1_GWF-(1,26422)  9.07550176E-03                    1_GWF-(1,10966)
        211          5         11  6.12086862E-02                    1_GWF-(1,26647) -8.50949836E-03                    1_GWF-(1,10966)
        212          5         12  5.30597276E-02                    1_GWF-(1,11424)  1.04152348E-02                    1_GWF-(1,10966)
        213          5         13  5.49372873E-02                    1_GWF-(1,23314) -1.01992885E-02                    1_GWF-(1,10966)
        214          5         14 -6.10902924E-02                    1_GWF-(1,26623)  1.12596994E-02                    1_GWF-(1,10966)
        215          5         15 -6.75393344E-02                    1_GWF-(1,26649) -1.10192955E-02                    1_GWF-(1,10966)
        216          5         16 -5.51398256E-02                    1_GWF-(1,26648)  9.81555718E-03                    1_GWF-(1,14801)
        217          5         17  3.95711606E-02                    1_GWF-(1,26648) -1.01109584E-02                    1_GWF-(1,14801)
        218          5         18  4.67999152E-02                    1_GWF-(1,26645)  1.09696600E-02                    1_GWF-(1,14801)
        219          5         19  4.59529242E-02                    1_GWF-(1,26665) -1.03922139E-02                    1_GWF-(1,14801)
        220          5         20  6.16589190E-02                    1_GWF-(1,26674)  1.03883580E-02                    1_GWF-(1,14801)
        221          5         21  3.63419268E-02                    1_GWF-(1,11424) -1.05051841E-02                    1_GWF-(1,14801)
        222          5         22 -6.35495831E-02                    1_GWF-(1,26422)  1.05378459E-02                    1_GWF-(1,14801)
        223          5         23 -8.75492424E-02                    1_GWF-(1,26588) -7.07632519E-03                    1_GWF-(1,14801)
        224          5         24 -7.37742265E-02                    1_GWF-(1,26543) -2.79564570E-03                    1_GWF-(1,10966)
        225          5         25  6.99573628E-02                    1_GWF-(1,26543)  6.70171459E-03                    1_GWF-(1,14801)
        226          5         26  5.84185857E-02                    1_GWF-(1,26588) -9.48923124E-03                    1_GWF-(1,14801)
        227          5         27  6.84117974E-02                    1_GWF-(1,26648)  9.62643418E-03                    1_GWF-(1,14801)
        228          5         28  8.27797585E-02                    1_GWF-(1,26649) -7.24520883E-03                    1_GWF-(1,14801)
        229          5         29  6.37898117E-02                    1_GWF-(1,26622)  3.77995869E-03                    1_GWF-(1,14801)
        230          5         30  5.29070835E-02                    1_GWF-(1,26543)  1.91058548E-03                    1_GWF-(1,14799)
        231          5         31  7.57771386E-02                    1_GWF-(1,26588) -5.94292871E-03                    1_GWF-(1,14801)
        232          5         32  5.94001843E-02                    1_GWF-(1,26543)  7.03401367E-03                    1_GWF-(1,14801)
        233          5         33  4.06697813E-02                    1_GWF-(1,26486) -6.85992641E-03                    1_GWF-(1,14801)
        234          5         34  3.99690545E-02                    1_GWF-(1,26487)  5.40746579E-03                    1_GWF-(1,14801)
        235          5         35  4.23481099E-02                    1_GWF-(1,26623)  2.79580430E-03                    1_GWF-(1,10966)
        236          5         36  6.33625631E-02                    1_GWF-(1,26665) -2.88555396E-03                    1_GWF-(1,14799)
        237          5         37  5.31273908E-02                    1_GWF-(1,26666) -3.13519040E-03                    1_GWF-(1,14800)
        238          5         38  4.03454849E-02                    1_GWF-(1,26622) -4.29728544E-03                    1_GWF-(1,14801)
        239          5         39 -3.85659889E-02                    1_GWF-(1,26622) -3.60152121E-03                    1_GWF-(1,14800)
        240          5         40 -4.49771912E-02                    1_GWF-(1,26649) -2.60079760E-03                    1_GWF-(1,14801)
        241          5         41 -5.10112794E-02                    1_GWF-(1,26648) -2.36655614E-03                    1_GWF-(1,14799)
        242          5         42 -5.79364854E-02                    1_GWF-(1,26665) -2.75629632E-03                    1_GWF-(1,14800)
        243          5         43 -4.26458551E-02                    1_GWF-(1,26666) -4.38604233E-03                    1_GWF-(1,14801)
        244          5         44  3.38115902E-02                    1_GWF-(1,26647) -4.19754100E-03                    1_GWF-(1,14800)
        245          5         45  5.60932742E-02                    1_GWF-(1,26665) -5.04996716E-03                    1_GWF-(1,14801)
        246          5         46  3.62872626E-02                    1_GWF-(1,26422) -5.75273307E-03                    1_GWF-(1,14799)
        247          5         47  3.70433313E-02                    1_GWF-(1,26350)  5.45758756E-03                    1_GWF-(1,14799)
        248          5         48 -3.32904638E-02                    1_GWF-(1,26648) -7.30892576E-03                    1_GWF-(1,14799)
        249          5         49 -3.36727470E-02                    1_GWF-(1,26649)  7.16409690E-03                    1_GWF-(1,14799)
        250          5         50 -3.17994358E-02                    1_GWF-(1,11424) -8.84557259E-03                    1_GWF-(1,14799)
        251          6          1  2.35104422E-02                    1_GWF-(1,11424)  7.76868407E-03                    1_GWF-(1,14799)
        252          6          2  2.55650149E-02                    1_GWF-(1,26183) -8.77916195E-03                    1_GWF-(1,14799)
        253          6          3  2.44056303E-02                    1_GWF-(1,26648)  7.46551393E-03                    1_GWF-(1,14799)
        254          6          4 -2.51986879E-02                    1_GWF-(1,26350) -8.21862212E-03                    1_GWF-(1,14799)
        255          6          5 -2.74576875E-02                    1_GWF-(1,26422)  6.27791766E-03                    1_GWF-(1,14799)
        256          6          6 -3.13951652E-02                    1_GWF-(1,26665) -5.07213314E-03                    1_GWF-(1,14799)
        257          6          7 -2.65505073E-02                    1_GWF-(1,26666)  3.39032525E-03                    1_GWF-(1,14799)
        258          6          8 -2.59517595E-02                    1_GWF-(1,26665) -2.21630685E-03                    1_GWF-(1,14799)
        259          6          9  4.12884965E-02                    1_GWF-(1,26665) -9.05156789E-04                    1_GWF-(1,10966)
        260          6         10  3.18038544E-02                    1_GWF-(1,26487)  2.11462760E-03                    1_GWF-(1,14799)
        261          6         11  2.74214849E-02                    1_GWF-(1,26649) -3.05815423E-03                    1_GWF-(1,14799)
        262          6         12  2.31240585E-02                    1_GWF-(1,26622)  2.00298398E-03                    1_GWF-(1,14799)
        263          6         13  2.12875881E-02                    1_GWF-(1,26623) -1.58857968E-03                    1_GWF-(1,14800)
        264          6         14  2.32021590E-02                    1_GWF-(1,26622) -9.95914738E-04                    1_GWF-(1,10966)
        265          6         15 -3.37242314E-02                    1_GWF-(1,26665)  1.54786731E-03                    1_GWF-(1,14799)
        266          6         16 -2.41073061E-02                    1_GWF-(1,26666) -2.46067341E-03                    1_GWF-(1,14799)
        267          6         17 -2.04755917E-02                    1_GWF-(1,26487)  2.23064736E-03                    1_GWF-(1,14799)
        268          6         18 -2.12394282E-02                    1_GWF-(1,26486) -2.05868219E-03                    1_GWF-(1,14800)
        269          6         19 -2.52759033E-02                    1_GWF-(1,26543) -1.92063484E-03                    1_GWF-(1,14801)
        270          6         20 -3.49577601E-02                    1_GWF-(1,26588)  7.88112146E-04                    1_GWF-(1,10966)
        271          6         21 -2.85518422E-02                    1_GWF-(1,26543) -1.48817090E-03                    1_GWF-(1,14799)
        272          6         22 -2.72344149E-02                    1_GWF-(1,26622)  1.74442253E-03                    1_GWF-(1,14799)
        273          6         23 -3.37593813E-02                    1_GWF-(1,26649)  2.26632120E-03                    1_GWF-(1,14801)
        274          6         24 -2.43792996E-02                    1_GWF-(1,26648) -2.10913027E-03                    1_GWF-(1,14801)
        275          6         25  1.95327532E-02                    1_GWF-(1,26543)  1.74378816E-03                    1_GWF-(1,14801)
        276          6         26  2.34638928E-02                    1_GWF-(1,26588) -6.89256556E-04                    1_GWF-(1,14799)
        277          6         27  2.58124385E-02                    1_GWF-(1,26589)  9.03864315E-04                    1_GWF-(1,14799)
        278          6         28  2.71389980E-02                    1_GWF-(1,26588)  1.76442054E-03                    1_GWF-(1,14801)
        279          6         29  1.97537654E-02                    1_GWF-(1,26422) -1.82020077E-03                    1_GWF-(1,14801)
        280          6         30  1.18869804E-02                    1_GWF-(1,26212)  2.09837508E-03                    1_GWF-(1,14801)
        281          6         31 -1.33152481E-02                    1_GWF-(1,26674) -2.18847940E-03                    1_GWF-(1,14801)
        282          6         32 -1.29481188E-02                    1_GWF-(1,26666)  2.72237915E-03                    1_GWF-(1,14801)
        283          6         33 -1.23427850E-02                    1_GWF-(1,26665) -2.52965706E-03                    1_GWF-(1,14801)
        284          6         34 -8.86386570E-03                    1_GWF-(1,26487)  2.69360567E-03                    1_GWF-(1,14801)
        285          6         35 -1.21266058E-02                    1_GWF-(1,26422) -2.51006595E-03                    1_GWF-(1,14801)
        286          6         36  1.21499397E-02                    1_GWF-(1,26663)  2.48160985E-03                    1_GWF-(1,14801)
        287          6         37  9.97160757E-03                    1_GWF-(1,26623) -2.02576465E-03                    1_GWF-(1,14801)
        288          6         38 -7.92591133E-03                    1_GWF-(1,26350)  2.22006245E-03                    1_GWF-(1,14799)
        289          6         39 -1.37800802E-02                    1_GWF-(1,11424) -1.84486121E-03                    1_GWF-(1,14799)
        290          6         40  1.09658965E-02                    1_GWF-(1,11424)  1.95839673E-03                    1_GWF-(1,14799)
        291          6         41 -9.63146001E-03                    1_GWF-(1,26648) -1.56832231E-03                    1_GWF-(1,14799)
        292          6         42 -1.13097361E-02                    1_GWF-(1,11424)  1.55817717E-03                    1_GWF-(1,14799)
        293          6         43  1.15998630E-02                    1_GWF-(1,26350)  1.29191942E-03                    1_GWF-(1,10966)
        294          6         44  1.52347226E-02                    1_GWF-(1,26422)  1.08709150E-03                    1_GWF-(1,14799)
        295          6         45  1.17155006E-02                    1_GWF-(1,26350)  1.51535344E-03                    1_GWF-(1,10966)
        296          6         46  1.00964402E-02                    1_GWF-(1,11424) -9.89376422E-04                    1_GWF-(1,10966)
        297          6         47 -1.12086836E-02                    1_GWF-(1,26422)  1.31038616E-03                    1_GWF-(1,10966)
        298          6         48 -1.01325748E-02                    1_GWF-(1,26350)  7.73236127E-04                    1_GWF-(1,10961)
        299          6         49 -1.05896260E-02                    1_GWF-(1,26422)  9.27534133E-04                    1_GWF-(1,10966)
        300          6         50 -1.02409486E-02                    1_GWF-(1,26350)  5.03138862E-04                    1_GWF-(1,14800)
        301          7          1  8.52131231E-03                    1_GWF-(1,26350)  6.46723695E-04                    1_GWF-(1,10966)
        302          7          2  9.50328129E-03                    1_GWF-(1,26422)  5.06449930E-04                    1_GWF-(1,14800)
        303          7          3  1.01890499E-02                    1_GWF-(1,26350)  4.99758885E-04                    1_GWF-(1,14801)
        304          7          4  1.11970751E-02                    1_GWF-(1,26422)  3.22224269E-04                    1_GWF-(1,14800)
        305          7          5  9.67970811E-03                    1_GWF-(1,26350)  2.54768738E-04                    1_GWF-(1,14801)
        306          7          6 -1.11494774E-02                    1_GWF-(1,26350)  4.13688508E-04                    1_GWF-(1,10966)
        307          7          7 -1.29432389E-02                    1_GWF-(1,26422) -3.72142930E-04                    1_GWF-(1,11206)
        308          7          8 -9.65461481E-03                    1_GWF-(1,26350)  7.33539733E-04                    1_GWF-(1,10966)
        309          7          9  6.57975543E-03                    1_GWF-(1,11424) -6.01644951E-04                    1_GWF-(1,10966)
        310          7         10  6.99352081E-03                    1_GWF-(1,26422)  8.78282779E-04                    1_GWF-(1,10966)
        311          7         11 -7.29280534E-03                    1_GWF-(1,11424) -7.32534497E-04                    1_GWF-(1,10966)
        312          7         12  7.16632656E-03                    1_GWF-(1,11424)  8.75448509E-04                    1_GWF-(1,10966)
        313          7         13  6.32563861E-03                    1_GWF-(1,26350) -8.03122192E-04                    1_GWF-(1,14801)
        314          7         14 -8.83172539E-03                    1_GWF-(1,26623)  9.37424302E-04                    1_GWF-(1,14801)
        315          7         15 -1.00268675E-02                    1_GWF-(1,26622) -8.14034014E-04                    1_GWF-(1,14801)
        316          7         16 -9.85692436E-03                    1_GWF-(1,26649)  4.11847457E-04                    1_GWF-(1,14801)
        317          7         17  1.12370932E-02                    1_GWF-(1,26649)  4.21606666E-04                    1_GWF-(1,10966)
        318          7         18  1.12515707E-02                    1_GWF-(1,26648) -7.68138551E-04                    1_GWF-(1,14801)
        319          7         19  9.14870116E-03                    1_GWF-(1,26649)  1.09345869E-03                    1_GWF-(1,14801)
        320          7         20  6.68914396E-03                    1_GWF-(1,26622) -1.09712049E-03                    1_GWF-(1,14801)
        321          7         21 -4.90711391E-03                    1_GWF-(1,26420)  1.10483158E-03                    1_GWF-(1,14801)
        322          7         22 -7.52965131E-03                    1_GWF-(1,26422) -8.99058548E-04                    1_GWF-(1,14801)
        323          7         23 -7.31382637E-03                    1_GWF-(1,26589)  5.79560293E-04                    1_GWF-(1,14801)
        324          7         24  8.68586748E-03                    1_GWF-(1,26486)  2.73097076E-04                    1_GWF-(1,10966)
        325          7         25 -8.59826540E-03                    1_GWF-(1,26486) -6.92238694E-04                    1_GWF-(1,14801)
        326          7         26 -5.68795045E-03                    1_GWF-(1,26487)  9.40397286E-04                    1_GWF-(1,14801)
        327          7         27  4.55640738E-03                    1_GWF-(1,26663) -1.03256236E-03                    1_GWF-(1,14801)
        328          7         28  6.24066302E-03                    1_GWF-(1,26648)  9.50887114E-04                    1_GWF-(1,14801)
        329          7         29  5.72646971E-03                    1_GWF-(1,26649) -1.04946003E-03                    1_GWF-(1,14801)
        330          7         30  4.69856875E-03                    1_GWF-(1,26623)  9.37464185E-04                    1_GWF-(1,14801)
        331          7         31  4.22717089E-03                    1_GWF-(1,26543) -8.72265663E-04                    1_GWF-(1,14801)
        332          7         32 -5.25304519E-03                    1_GWF-(1,26663)  5.68380394E-04                    1_GWF-(1,14801)
        333          7         33 -4.24926144E-03                    1_GWF-(1,26665) -3.55864591E-04                    1_GWF-(1,14801)
        334          7         34  4.73055101E-03                    1_GWF-(1,26622) -2.72981593E-04                    1_GWF-(1,14799)
        335          7         35  4.52927518E-03                    1_GWF-(1,26543) -2.60113103E-04                    1_GWF-(1,14800)
        336          7         36 -4.96096951E-03                    1_GWF-(1,26543) -4.88272527E-04                    1_GWF-(1,14801)
        337          7         37 -4.50919209E-03                    1_GWF-(1,26588) -4.35669587E-04                    1_GWF-(1,14800)
        338          7         38 -4.00061591E-03                    1_GWF-(1,26589) -4.26784079E-04                    1_GWF-(1,14801)
        339          7         39 -4.78325735E-03                    1_GWF-(1,26588) -3.09314807E-04                    1_GWF-(1,14800)
        340          7         40 -5.36718045E-03                    1_GWF-(1,26665) -2.50745026E-04                    1_GWF-(1,14798)
        341          7         41 -5.35175566E-03                    1_GWF-(1,26666) -2.67575383E-04                    1_GWF-(1,14799)
        342          7         42 -6.40508685E-03                    1_GWF-(1,26665) -2.99820384E-04                    1_GWF-(1,14800)
        343          7         43 -3.83524305E-03                    1_GWF-(1,26666) -4.13460644E-04                    1_GWF-(1,14801)
        344          7         44  3.98471109E-03                    1_GWF-(1,26666) -3.90321805E-04                    1_GWF-(1,14800)
        345          7         45  5.04972664E-03                    1_GWF-(1,26665)  4.80603493E-04                    1_GWF-(1,14799)
        346          7         46  4.06404640E-03                    1_GWF-(1,26422) -7.51508214E-04                    1_GWF-(1,14799)
        347          7         47  3.85187264E-03                    1_GWF-(1,26350)  7.07715180E-04                    1_GWF-(1,14799)
        348          7         48  3.29710886E-03                    1_GWF-(1,26217) -8.81233155E-04                    1_GWF-(1,14799)
        349          7         49 -3.07459828E-03                    1_GWF-(1,26663)  8.80591164E-04                    1_GWF-(1,14799)
        350          7         50 -2.64113809E-03                    1_GWF-(1,26218) -1.03181568E-03                    1_GWF-(1,14799)
        351          8          1 -2.15236298E-03                    1_GWF-(1,26570)  9.20010384E-04                    1_GWF-(1,14799)
        352          8          2  2.54314937E-03                    1_GWF-(1,26663) -9.74817042E-04                    1_GWF-(1,14799)
        353          8          3 -2.58738688E-03                    1_GWF-(1,26217)  8.28284730E-04                    1_GWF-(1,14799)
        354          8          4 -2.72245932E-03                    1_GWF-(1,26350) -8.72590430E-04                    1_GWF-(1,14799)
        355          8          5 -3.01313135E-03                    1_GWF-(1,26422)  6.44758039E-04                    1_GWF-(1,14799)
        356          8          6 -3.52243149E-03                    1_GWF-(1,26665) -5.17137215E-04                    1_GWF-(1,14799)
        357          8          7 -3.03043230E-03                    1_GWF-(1,26666)  3.26903599E-04                    1_GWF-(1,14799)
        358          8          8 -2.62880483E-03                    1_GWF-(1,26665) -2.08739034E-04                    1_GWF-(1,14800)
        359          8          9  4.46280123E-03                    1_GWF-(1,26665) -1.05870486E-04                    1_GWF-(1,14801)
        360          8         10  3.69176036E-03                    1_GWF-(1,26666)  2.07679395E-04                    1_GWF-(1,14799)
        361          8         11  3.31537797E-03                    1_GWF-(1,26665) -3.11014965E-04                    1_GWF-(1,14799)
        362          8         12  3.24529224E-03                    1_GWF-(1,26588)  2.33792427E-04                    1_GWF-(1,14799)
        363          8         13  2.57364250E-03                    1_GWF-(1,26589) -2.16564094E-04                    1_GWF-(1,14800)
        364          8         14  2.36988183E-03                    1_GWF-(1,26588) -2.27387594E-04                    1_GWF-(1,14801)
        365          8         15 -2.70062060E-03                    1_GWF-(1,26588) -1.24000464E-04                    1_GWF-(1,14800)
        366          8         16 -2.26510833E-03                    1_GWF-(1,26649) -1.61588771E-04                    1_GWF-(1,14799)
        367          8         17 -2.55503675E-03                    1_GWF-(1,26622)  2.01559545E-04                    1_GWF-(1,14799)
        368          8         18  2.45583741E-03                    1_GWF-(1,26674) -2.01713849E-04                    1_GWF-(1,14800)
        369          8         19  2.49492065E-03                    1_GWF-(1,26663) -2.83124599E-04                    1_GWF-(1,14801)
        370          8         20 -2.38953033E-03                    1_GWF-(1,26543)  2.91116256E-04                    1_GWF-(1,14801)
        371          8         21 -2.27186992E-03                    1_GWF-(1,26623) -3.00450980E-04                    1_GWF-(1,14801)
        372          8         22 -1.87167342E-03                    1_GWF-(1,26217)  2.80673965E-04                    1_GWF-(1,14801)
        373          8         23 -1.68443585E-03                    1_GWF-(1,26648) -2.78905554E-04                    1_GWF-(1,14801)
        374          8         24 -1.80574661E-03                    1_GWF-(1,26663)  2.86111766E-04                    1_GWF-(1,14801)
        375          8         25  1.83225712E-03                    1_GWF-(1,26622) -2.24571594E-04                    1_GWF-(1,14801)
        376          8         26  3.28323683E-03                    1_GWF-(1,26649)  1.20256985E-04                    1_GWF-(1,14799)
        377          8         27  3.85409910E-03                    1_GWF-(1,26622)  1.13121396E-04                    1_GWF-(1,14801)
        378          8         28  2.99809295E-03                    1_GWF-(1,26649) -2.19605492E-04                    1_GWF-(1,14801)
        379          8         29  1.88302514E-03                    1_GWF-(1,26350)  3.02327436E-04                    1_GWF-(1,14801)
        380          8         30  1.78834511E-03                    1_GWF-(1,26487) -3.10354969E-04                    1_GWF-(1,14801)
        381          8         31  2.30498398E-03                    1_GWF-(1,26486)  3.33668986E-04                    1_GWF-(1,14801)
        382          8         32 -1.80971687E-03                    1_GWF-(1,26665) -2.62963998E-04                    1_GWF-(1,14801)
        383          8         33 -2.00953642E-03                    1_GWF-(1,26487)  1.90478862E-04                    1_GWF-(1,14799)
        384          8         34 -2.51952700E-03                    1_GWF-(1,26486)  3.61256631E-05                    1_GWF-(1,10966)
        385          8         35 -2.45401641E-03                    1_GWF-(1,26487)  1.39177003E-04                    1_GWF-(1,14800)
        386          8         36 -1.94312541E-03                    1_GWF-(1,26486)  2.21215776E-04                    1_GWF-(1,14801)
        387          8         37  1.29254833E-03                    1_GWF-(1,26623) -2.01303216E-04                    1_GWF-(1,14801)
        388          8         38 -1.18549355E-03                    1_GWF-(1,26350)  2.16560324E-04                    1_GWF-(1,14799)
        389          8         39 -1.46264077E-03                    1_GWF-(1,11424) -1.72795668E-04                    1_GWF-(1,14799)
        390          8         40  1.17708062E-03                    1_GWF-(1,11424)  1.83578712E-04                    1_GWF-(1,14799)
        391          8         41 -1.11182029E-03                    1_GWF-(1,26648) -1.36260934E-04                    1_GWF-(1,14799)
        392          8         42 -1.25454331E-03                    1_GWF-(1,11424)  1.33844742E-04                    1_GWF-(1,14799)
        393          8         43  1.29686950E-03                    1_GWF-(1,26350)  1.27861337E-04                    1_GWF-(1,10966)
        394          8         44  1.67572898E-03                    1_GWF-(1,26422) -9.51396700E-05                    1_GWF-(1,10966)
        395          8         45  1.29315953E-03                    1_GWF-(1,26350)  1.40040454E-04                    1_GWF-(1,10966)
        396          8         46  1.02875994E-03                    1_GWF-(1,11424)  8.14690836E-05                    1_GWF-(1,10961)
        397          8         47  1.13315300E-03                    1_GWF-(1,26544)  1.16809342E-04                    1_GWF-(1,10966)
        398          8         48 -1.03067596E-03                    1_GWF-(1,26350)  6.96822261E-05                    1_GWF-(1,10961)
        399          8         49 -1.04372573E-03                    1_GWF-(1,26422)  8.30394188E-05                    1_GWF-(1,10966)
        400          8         50 -9.68061965E-04                    1_GWF-(1,26350)  5.74557265E-05                    1_GWF-(1,14800)
        401          9          1  9.43247087E-04                    1_GWF-(1,26350)  6.46696747E-05                    1_GWF-(1,14801)
        402          9          2  1.02232826E-03                    1_GWF-(1,26422)  5.58186989E-05                    1_GWF-(1,14800)
        403          9          3 -1.08955521E-03                    1_GWF-(1,26486)  5.38756605E-05                    1_GWF-(1,14801)
        404          9          4 -1.16487556E-03                    1_GWF-(1,26544)  3.34785217E-05                    1_GWF-(1,14800)
        405          9          5  9.48071984E-04                    1_GWF-(1,26350)  2.42301738E-05                    1_GWF-(1,14801)
        406          9          6 -1.24363485E-03                    1_GWF-(1,26350)  4.00766963E-05                    1_GWF-(1,10966)
        407          9          7 -1.44867041E-03                    1_GWF-(1,26422) -4.27016150E-05                    1_GWF-(1,11206)
        408          9          8 -1.08153222E-03                    1_GWF-(1,26350)  6.49714163E-05                    1_GWF-(1,10966)
        409          9          9  7.10462908E-04                    1_GWF-(1,11424) -5.43156630E-05                    1_GWF-(1,14799)
        410          9         10  8.56229827E-04                    1_GWF-(1,26422)  7.68526218E-05                    1_GWF-(1,14799)
        411          9         11  8.07165367E-04                    1_GWF-(1,26218) -7.30850846E-05                    1_GWF-(1,14799)
        412          9         12  7.71296013E-04                    1_GWF-(1,11424)  9.41667151E-05                    1_GWF-(1,14799)
        413          9         13  8.02500229E-04                    1_GWF-(1,26350) -8.99649867E-05                    1_GWF-(1,14801)
        414          9         14 -9.36936203E-04                    1_GWF-(1,26623)  8.81086496E-05                    1_GWF-(1,14801)
        415          9         15  1.05957436E-03                    1_GWF-(1,26588) -4.46399580E-05                    1_GWF-(1,14801)
        416          9         16  1.09490436E-03                    1_GWF-(1,26487) -2.18696242E-05                    1_GWF-(1,10966)
        417          9         17  8.84250579E-04                    1_GWF-(1,26486)  7.62967257E-05                    1_GWF-(1,14799)
        418          9         18  9.23203258E-04                    1_GWF-(1,26648) -1.02194364E-04                    1_GWF-(1,14801)
        419          9         19  9.56004468E-04                    1_GWF-(1,26649)  1.13735277E-04                    1_GWF-(1,14801)
        420          9         20  1.01602748E-03                    1_GWF-(1,26622) -7.64709042E-05                    1_GWF-(1,14801)
        421          9         21  9.90654387E-04                    1_GWF-(1,26649)  1.72412004E-05                    1_GWF-(1,14801)
        422          9         22 -8.75821159E-04                    1_GWF-(1,26649)  5.32543886E-05                    1_GWF-(1,14801)
        423          9         23 -9.00669463E-04                    1_GWF-(1,26622) -9.72130229E-05                    1_GWF-(1,14801)
        424          9         24 -8.56873172E-04                    1_GWF-(1,26649)  1.13363041E-04                    1_GWF-(1,14801)
        425          9         25 -5.55344326E-04                    1_GWF-(1,26622) -1.12896208E-04                    1_GWF-(1,14801)
        426          9         26  5.62981765E-04                    1_GWF-(1,26218)  9.86914254E-05                    1_GWF-(1,14801)
        427          9         27  5.20124900E-04                    1_GWF-(1,26422) -6.96327638E-05                    1_GWF-(1,14801)
        428          9         28  7.64142142E-04                    1_GWF-(1,26486) -2.17958914E-05                    1_GWF-(1,10966)
        429          9         29  7.47866035E-04                    1_GWF-(1,26487)  4.67153722E-05                    1_GWF-(1,14801)
        430          9         30  7.72333969E-04                    1_GWF-(1,26589) -8.37552153E-05                    1_GWF-(1,14801)
        431          9         31  7.72403638E-04                    1_GWF-(1,26588)  8.80272028E-05                    1_GWF-(1,14801)
        432          9         32  4.97784249E-04                    1_GWF-(1,26194) -9.28066668E-05                    1_GWF-(1,14801)
        433          9         33 -4.67200613E-04                    1_GWF-(1,26663)  8.13947333E-05                    1_GWF-(1,14801)
        434          9         34 -2.97661152E-04                    1_GWF-(1,26218) -7.86306077E-05                    1_GWF-(1,14801)
        435          9         35  3.52027700E-04                    1_GWF-(1,26218)  7.26965952E-05                    1_GWF-(1,14801)
        436          9         36  4.35348274E-04                    1_GWF-(1,26217) -6.52975205E-05                    1_GWF-(1,14801)
        437          9         37  3.30202961E-04                    1_GWF-(1,26665) -4.71935783E-05                    1_GWF-(1,14800)
        438          9         38  3.32192993E-04                    1_GWF-(1,26663) -4.15353245E-05                    1_GWF-(1,14801)
        439          9         39 -3.64022893E-04                    1_GWF-(1,26623) -4.70627356E-05                    1_GWF-(1,14799)
        440          9         40 -6.14467048E-04                    1_GWF-(1,26665)  3.55487200E-05                    1_GWF-(1,14799)
        441          9         41 -6.19737977E-04                    1_GWF-(1,26666) -3.18845230E-05                    1_GWF-(1,14799)
        442          9         42 -6.51368381E-04                    1_GWF-(1,26665) -2.73081407E-05                    1_GWF-(1,14800)
        443          9         43  4.05273360E-04                    1_GWF-(1,26622) -3.85648298E-05                    1_GWF-(1,14801)
        444          9         44  4.56944611E-04                    1_GWF-(1,26666) -4.62377454E-05                    1_GWF-(1,14799)
        445          9         45  5.14288566E-04                    1_GWF-(1,26665)  6.01921937E-05                    1_GWF-(1,14799)
        446          9         46  4.65596428E-04                    1_GWF-(1,26422) -9.05305915E-05                    1_GWF-(1,14799)
        447          9         47  4.13296903E-04                    1_GWF-(1,26350)  8.73766037E-05                    1_GWF-(1,14799)
        448          9         48  3.59957336E-04                    1_GWF-(1,26217) -1.04982342E-04                    1_GWF-(1,14799)
        449          9         49 -3.28295888E-04                    1_GWF-(1,26663)  1.03481652E-04                    1_GWF-(1,14799)
        450          9         50 -2.75792510E-04                    1_GWF-(1,26218) -1.17198504E-04                    1_GWF-(1,14799)
        451         10          1  2.13275973E-04                    1_GWF-(1,26218)  1.04695993E-04                    1_GWF-(1,14799)
        452         10          2  2.86714766E-04                    1_GWF-(1,26663) -1.07519745E-04                    1_GWF-(1,14799)
        453         10          3 -2.87972142E-04                    1_GWF-(1,26217)  9.03369268E-05                    1_GWF-(1,14799)
        454         10          4 -3.06989290E-04                    1_GWF-(1,26350) -9.15727555E-05                    1_GWF-(1,14799)
        455         10          5 -3.49837233E-04                    1_GWF-(1,26422)  6.50460205E-05                    1_GWF-(1,14799)
        456         10          6 -3.88572746E-04                    1_GWF-(1,26665) -5.06192599E-05                    1_GWF-(1,14799)
        457         10          7 -3.42453771E-04                    1_GWF-(1,26666)  2.78134395E-05                    1_GWF-(1,14799)
        458         10          8 -3.24524499E-04                    1_GWF-(1,26622) -1.83976621E-05                    1_GWF-(1,14800)
        459         10          9  4.40535327E-04                    1_GWF-(1,26665) -1.67330053E-05                    1_GWF-(1,14799)
        460         10         10  3.81651887E-04                    1_GWF-(1,26666)  2.60101221E-05                    1_GWF-(1,14799)
        461         10         11  3.47770114E-04                    1_GWF-(1,26622) -3.31454453E-05                    1_GWF-(1,14799)
        462         10         12  2.61572785E-04                    1_GWF-(1,26588)  1.97931818E-05                    1_GWF-(1,14799)
        463         10         13  2.94973569E-04                    1_GWF-(1,26543) -1.44632759E-05                    1_GWF-(1,14800)
        464         10         14  2.96739106E-04                    1_GWF-(1,26588) -1.58782764E-05                    1_GWF-(1,14799)
        465         10         15  3.40630972E-04                    1_GWF-(1,26486)  2.15098433E-05                    1_GWF-(1,14799)
        466         10         16  2.26364034E-04                    1_GWF-(1,26544) -2.56164491E-05                    1_GWF-(1,14799)
        467         10         17 -1.84837164E-04                    1_GWF-(1,26674) -2.66203525E-05                    1_GWF-(1,14801)
        468         10         18  2.40075175E-04                    1_GWF-(1,26674)  2.82293186E-05                    1_GWF-(1,14801)
        469         10         19  2.56076306E-04                    1_GWF-(1,26663) -3.15098166E-05                    1_GWF-(1,14801)
        470         10         20 -2.46511639E-04                    1_GWF-(1,26542)  2.36302845E-05                    1_GWF-(1,14801)
        471         10         21 -4.07633713E-04                    1_GWF-(1,26623) -9.43648635E-06                    1_GWF-(1,14799)
        472         10         22 -4.51867147E-04                    1_GWF-(1,26622) -1.10239697E-05                    1_GWF-(1,14801)
        473         10         23 -4.51696622E-04                    1_GWF-(1,26649)  2.50211046E-05                    1_GWF-(1,14801)
        474         10         24 -2.67026062E-04                    1_GWF-(1,26648) -2.85939918E-05                    1_GWF-(1,14801)
        475         10         25 -1.87775986E-04                    1_GWF-(1,26217)  3.10414953E-05                    1_GWF-(1,14801)
        476         10         26 -1.78901709E-04                    1_GWF-(1,26218) -3.05787481E-05                    1_GWF-(1,14801)
        477         10         27  1.79065656E-04                    1_GWF-(1,26622)  3.25537967E-05                    1_GWF-(1,14801)
        478         10         28  2.24234973E-04                    1_GWF-(1,26217) -3.02282572E-05                    1_GWF-(1,14801)
        479         10         29  2.65917654E-04                    1_GWF-(1,26422)  2.80539178E-05                    1_GWF-(1,14801)
        480         10         30  2.30390932E-04                    1_GWF-(1,26420) -1.41103553E-05                    1_GWF-(1,14801)
        481         10         31  2.78734902E-04                    1_GWF-(1,26487)  4.31786100E-06                    1_GWF-(1,14800)
        482         10         32 -2.55353772E-04                    1_GWF-(1,26665)  2.11262881E-05                    1_GWF-(1,14801)
        483         10         33 -1.74313438E-04                    1_GWF-(1,26648) -2.72462044E-05                    1_GWF-(1,14801)
        484         10         34 -1.47025530E-04                    1_GWF-(1,26487)  3.01824645E-05                    1_GWF-(1,14801)
        485         10         35 -1.24949593E-04                    1_GWF-(1,26420) -2.81810695E-05                    1_GWF-(1,14801)
        486         10         36 -1.35057669E-04                    1_GWF-(1,11424)  2.74247215E-05                    1_GWF-(1,14801)
        487         10         37 -1.19952472E-04                    1_GWF-(1,26422) -2.21371036E-05                    1_GWF-(1,14801)
        488         10         38 -1.28300399E-04                    1_GWF-(1,26350)  2.20249222E-05                    1_GWF-(1,14799)
        489         10         39 -1.52127636E-04                    1_GWF-(1,11424) -1.65972758E-05                    1_GWF-(1,14799)
        490         10         40 -1.24580510E-04                    1_GWF-(1,26218)  1.73844112E-05                    1_GWF-(1,14799)
        491         10         41 -1.23152114E-04                    1_GWF-(1,26422) -1.22043064E-05                    1_GWF-(1,14799)
        492         10         42 -1.27479458E-04                    1_GWF-(1,11424)  1.21248438E-05                    1_GWF-(1,14799)
        493         10         43  1.46060385E-04                    1_GWF-(1,26350)  1.13649752E-05                    1_GWF-(1,10966)
        494         10         44  1.87224809E-04                    1_GWF-(1,26422)  7.89057005E-06                    1_GWF-(1,10961)
        495         10         45  1.45743037E-04                    1_GWF-(1,26350)  1.23176673E-05                    1_GWF-(1,10966)
        496         10         46  1.06353419E-04                    1_GWF-(1,26648)  7.20046637E-06                    1_GWF-(1,10961)
        497         10         47  1.38857111E-04                    1_GWF-(1,26544)  1.00001238E-05                    1_GWF-(1,10966)
        498         10         48  1.27375361E-04                    1_GWF-(1,26486)  6.00465369E-06                    1_GWF-(1,10961)
        499         10         49 -1.07257226E-04                    1_GWF-(1,26486)  6.75827032E-06                    1_GWF-(1,10966)
        500         10         50 -1.11976813E-04                    1_GWF-(1,26544)  5.31519872E-06                    1_GWF-(1,14800)
        501         11          1  1.11442846E-04                    1_GWF-(1,26544)  5.93114410E-06                    1_GWF-(1,14801)
        502         11          2  1.16469049E-04                    1_GWF-(1,26486)  3.63661391E-06                    1_GWF-(1,14800)
        503         11          3  1.20858164E-04                    1_GWF-(1,26649)  2.55126444E-06                    1_GWF-(1,14800)
        504         11          4 -1.10045157E-04                    1_GWF-(1,26588)  6.49055291E-06                    1_GWF-(1,14799)
        505         11          5 -1.24893653E-04                    1_GWF-(1,26420)  6.37767740E-06                    1_GWF-(1,14800)
        506         11          6 -1.38895608E-04                    1_GWF-(1,26422)  6.85178698E-06                    1_GWF-(1,14801)
        507         11          7 -1.96175132E-04                    1_GWF-(1,26350)  4.42160676E-06                    1_GWF-(1,14800)
        508         11          8 -1.66074887E-04                    1_GWF-(1,26422)  3.20922429E-06                    1_GWF-(1,14801)
        509         11          9 -9.58719653E-05                    1_GWF-(1,26420)  3.64764484E-06                    1_GWF-(1,11206)
        510         11         10  1.12849656E-04                    1_GWF-(1,26350) -4.44612307E-06                    1_GWF-(1,11206)
        511         11         11  1.13644306E-04                    1_GWF-(1,26648)  4.77064232E-06                    1_GWF-(1,14799)
        512         11         12  1.22123997E-04                    1_GWF-(1,26486)  3.03671517E-06                    1_GWF-(1,14800)
        513         11         13  1.32744999E-04                    1_GWF-(1,26487) -1.68353603E-06                    1_GWF-(1,11206)
        514         11         14  1.23452864E-04                    1_GWF-(1,26486)  3.67017988E-06                    1_GWF-(1,11206)
        515         11         15  9.44339440E-05                    1_GWF-(1,26487) -4.23748972E-06                    1_GWF-(1,11206)
        516         11         16  8.86338240E-05                    1_GWF-(1,26486)  5.99837175E-06                    1_GWF-(1,14799)
        517         11         17  5.51341528E-05                    1_GWF-(1,26350) -6.41868098E-06                    1_GWF-(1,14799)
        518         11         18  6.58043916E-05                    1_GWF-(1,26649)  8.88170187E-06                    1_GWF-(1,14799)
        519         11         19 -8.16331056E-05                    1_GWF-(1,26422) -9.86788067E-06                    1_GWF-(1,14799)
        520         11         20  8.08237362E-05                    1_GWF-(1,26666)  1.05620423E-05                    1_GWF-(1,14801)
        521         11         21 -8.32523329E-05                    1_GWF-(1,26487) -8.75812267E-06                    1_GWF-(1,14801)
        522         11         22 -9.13658733E-05                    1_GWF-(1,26350)  5.43092642E-06                    1_GWF-(1,14801)
        523         11         23 -9.79301511E-05                    1_GWF-(1,26589)  1.49134754E-06                    1_GWF-(1,11206)
        524         11         24 -1.24212173E-04                    1_GWF-(1,26588) -6.05383868E-06                    1_GWF-(1,14799)
        525         11         25 -7.66603500E-05                    1_GWF-(1,26543)  9.12761121E-06                    1_GWF-(1,14801)
        526         11         26  7.14473860E-05                    1_GWF-(1,26218) -1.05059416E-05                    1_GWF-(1,14801)
        527         11         27  8.05776820E-05                    1_GWF-(1,26666)  8.70014109E-06                    1_GWF-(1,14801)
        528         11         28  1.10802172E-04                    1_GWF-(1,26665) -4.56668362E-06                    1_GWF-(1,14801)
        529         11         29  8.99476441E-05                    1_GWF-(1,26647) -2.18165188E-06                    1_GWF-(1,14799)
        530         11         30  9.66570293E-05                    1_GWF-(1,26665)  6.21198853E-06                    1_GWF-(1,14799)
[...]
        558         12          8  2.26761807E-05                    1_GWF-(1,26544) -5.98699789E-06                    1_GWF-(1,14801)
        559         12          9  3.22565430E-05                    1_GWF-(1,26218)  5.67824798E-06                    1_GWF-(1,14801)
        560         12         10  3.31288970E-05                    1_GWF-(1,26422) -4.81773154E-06                    1_GWF-(1,14801)
        561         12         11  3.83061938E-05                    1_GWF-(1,26622) -1.56749801E-06                    1_GWF-(1,14800)
        562         12         12  3.99231689E-05                    1_GWF-(1,26588) -2.19876833E-06                    1_GWF-(1,14800)
        563         12         13  3.27741503E-05                    1_GWF-(1,26589) -4.65327174E-06                    1_GWF-(1,14801)
        564         12         14  2.27201004E-05                    1_GWF-(1,26487) -4.85642411E-06                    1_GWF-(1,14800)
        565         12         15  2.35797559E-05                    1_GWF-(1,26486) -5.36762528E-06                    1_GWF-(1,14801)
        566         12         16 -1.93387130E-05                    1_GWF-(1,22786)  4.52415596E-06                    1_GWF-(1,14801)
        567         12         17  1.19594029E-05                    1_GWF-(1,26647) -4.04242945E-06                    1_GWF-(1,14801)
        568         12         18  2.82928866E-05                    1_GWF-(1,26665)  3.17980422E-06                    1_GWF-(1,14801)
        569         12         19 -2.96949420E-05                    1_GWF-(1,26543) -1.91973265E-06                    1_GWF-(1,14801)
        570         12         20 -4.38432473E-05                    1_GWF-(1,26588)  1.03861536E-06                    1_GWF-(1,10966)
        571         12         21 -3.99754036E-05                    1_GWF-(1,26589)  2.06386410E-06                    1_GWF-(1,14801)
        572         12         22 -2.88806770E-05                    1_GWF-(1,26588) -2.94419999E-06                    1_GWF-(1,14801)
        573         12         23 -2.50598142E-05                    1_GWF-(1,26649)  3.26354555E-06                    1_GWF-(1,14801)
        574         12         24 -2.48639692E-05                    1_GWF-(1,26217) -2.62805811E-06                    1_GWF-(1,14801)
        575         12         25 -2.80272259E-05                    1_GWF-(1,26218)  1.79678264E-06                    1_GWF-(1,10966)
        576         12         26  2.52989142E-05                    1_GWF-(1,26543) -1.59787736E-06                    1_GWF-(1,10966)
        577         12         27  3.49189558E-05                    1_GWF-(1,26622)  9.33961028E-07                    1_GWF-(1,10966)
        578         12         28  2.89923829E-05                    1_GWF-(1,26666)  1.38657594E-06                    1_GWF-(1,14801)
        579         12         29  2.77437564E-05                    1_GWF-(1,26350) -1.57818365E-06                    1_GWF-(1,14801)
        580         12         30  2.36861777E-05                    1_GWF-(1,26486)  1.84695402E-06                    1_GWF-(1,14801)
        581         12         31  2.45900843E-05                    1_GWF-(1,26487) -1.97662522E-06                    1_GWF-(1,10966)
        582         12         32 -1.92639166E-05                    1_GWF-(1,26648)  1.96276573E-06                    1_GWF-(1,10966)
        583         12         33 -2.16790960E-05                    1_GWF-(1,26486) -1.46158964E-06                    1_GWF-(1,10966)
        584         12         34 -2.75120578E-05                    1_GWF-(1,26487)  5.45121542E-07                    1_GWF-(1,10966)
        585         12         35 -2.74395550E-05                    1_GWF-(1,26486)  9.58418263E-07                    1_GWF-(1,10966)
        586         12         36 -2.38791006E-05                    1_GWF-(1,26487) -1.47577145E-06                    1_GWF-(1,10966)
        587         12         37  1.79614778E-05                    1_GWF-(1,26666)  2.20098271E-06                    1_GWF-(1,10966)
        588         12         38 -1.52849287E-05                    1_GWF-(1,26422) -2.18954249E-06                    1_GWF-(1,10966)
        589         12         39 -1.08261438E-05                    1_GWF-(1,26665)  2.65986382E-06                    1_GWF-(1,10966)
        590         12         40 -1.24386546E-05                    1_GWF-(1,26646) -2.13557193E-06                    1_GWF-(1,10966)
        591         12         41 -1.42689836E-05                    1_GWF-(1,26589)  2.05869214E-06                    1_GWF-(1,10966)
        592         12         42 -1.56204965E-05                    1_GWF-(1,26623) -8.80737998E-07                    1_GWF-(1,10966)
        593         12         43  1.52783559E-05                    1_GWF-(1,26422)  3.98383987E-07                    1_GWF-(1,10966)
        594         12         44  1.88760533E-05                    1_GWF-(1,26622)  1.10780002E-06                    1_GWF-(1,10966)
        595         12         45  1.81429520E-05                    1_GWF-(1,26649)  9.96455867E-07                    1_GWF-(1,10961)
        596         12         46  1.45950619E-05                    1_GWF-(1,26486)  1.40455319E-06                    1_GWF-(1,10966)
        597         12         47  1.60861511E-05                    1_GWF-(1,26544)  6.93281060E-07                    1_GWF-(1,10961)
        598         12         48  1.37965966E-05                    1_GWF-(1,26486)  8.12069252E-07                    1_GWF-(1,10966)
        599         12         49 -1.03716612E-05                    1_GWF-(1,26486)  4.75012238E-07                    1_GWF-(1,14801)
        600         12         50 -1.02055495E-05                    1_GWF-(1,26544)  4.27333968E-07                    1_GWF-(1,14800)
        601         13          1  1.02087951E-05                    1_GWF-(1,26544)  5.21527556E-07                    1_GWF-(1,14801)
        602         13          2  1.18127241E-05                    1_GWF-(1,26422)  4.50043483E-07                    1_GWF-(1,14800)
        603         13          3 -1.37875635E-05                    1_GWF-(1,26486)  4.66050747E-07                    1_GWF-(1,14801)
        604         13          4 -1.55639174E-05                    1_GWF-(1,26544)  3.34230916E-07                    1_GWF-(1,14800)
        605         13          5 -1.51899661E-05                    1_GWF-(1,26486)  2.22432671E-07                    1_GWF-(1,10966)
        606         13          6 -1.27988787E-05                    1_GWF-(1,26649)  3.73311287E-07                    1_GWF-(1,11206)
        607         13          7 -1.43843322E-05                    1_GWF-(1,26622)  2.88760603E-07                    1_GWF-(1,14800)
        608         13          8 -1.33776667E-05                    1_GWF-(1,26422)  2.58553763E-07                    1_GWF-(1,14801)
        609         13          9  1.18686220E-05                    1_GWF-(1,26623)  4.05036998E-07                    1_GWF-(1,11206)
        610         13         10  1.21695062E-05                    1_GWF-(1,26350) -5.18762590E-07                    1_GWF-(1,11206)
        611         13         11  1.00687411E-05                    1_GWF-(1,26217)  6.24903711E-07                    1_GWF-(1,11206)
        612         13         12  9.95148830E-06                    1_GWF-(1,26218) -5.50079012E-07                    1_GWF-(1,11206)
        613         13         13  9.63837963E-06                    1_GWF-(1,26217)  4.15791978E-07                    1_GWF-(1,11206)
        614         13         14  1.04706294E-05                    1_GWF-(1,26543)  3.64632481E-07                    1_GWF-(1,14800)
        615         13         15  1.43110604E-05                    1_GWF-(1,26588)  3.37274998E-07                    1_GWF-(1,14801)
        616         13         16  1.23909430E-05                    1_GWF-(1,26543)  2.36042464E-07                    1_GWF-(1,11206)
        617         13         17  8.52554817E-06                    1_GWF-(1,26588) -3.26493386E-07                    1_GWF-(1,11206)
        618         13         18  8.71599238E-06                    1_GWF-(1,26649)  3.75967825E-07                    1_GWF-(1,14801)
        619         13         19  9.23228686E-06                    1_GWF-(1,26648)  5.45899819E-07                    1_GWF-(1,14800)
        620         13         20 -1.18325714E-05                    1_GWF-(1,26487)  7.43453597E-07                    1_GWF-(1,14801)
        621         13         21 -1.27467671E-05                    1_GWF-(1,26486) -7.07260014E-07                    1_GWF-(1,14801)
        622         13         22 -1.19566354E-05                    1_GWF-(1,26487)  5.27206563E-07                    1_GWF-(1,14801)
        623         13         23 -1.12958440E-05                    1_GWF-(1,26649)  1.42339389E-07                    1_GWF-(1,11206)
        624         13         24 -1.17945206E-05                    1_GWF-(1,26622) -4.76348491E-07                    1_GWF-(1,14801)
        625         13         25 -8.61641076E-06                    1_GWF-(1,26623)  8.73437001E-07                    1_GWF-(1,14801)
        626         13         26  1.05066251E-05                    1_GWF-(1,26218) -1.15897318E-06                    1_GWF-(1,14801)
        627         13         27  8.44490995E-06                    1_GWF-(1,26217)  1.25063992E-06                    1_GWF-(1,14801)
        628         13         28  6.64055906E-06                    1_GWF-(1,26218) -1.31305456E-06                    1_GWF-(1,14801)
        629         13         29  5.40329000E-06                    1_GWF-(1,26649)  1.35074319E-06                    1_GWF-(1,14801)
        630         13         30  6.69426413E-06                    1_GWF-(1,26589) -1.36739527E-06                    1_GWF-(1,14801)
        631         13         31  7.80693990E-06                    1_GWF-(1,26588)  1.21998460E-06                    1_GWF-(1,14801)
        632         13         32  7.02158336E-06                    1_GWF-(1,26543) -1.03156493E-06                    1_GWF-(1,14801)
        633         13         33 -7.30656172E-06                    1_GWF-(1,26663)  4.66095446E-07                    1_GWF-(1,14801)
        634         13         34 -6.34788540E-06                    1_GWF-(1,26588)  1.64535704E-07                    1_GWF-(1,14801)
        635         13         35 -5.74031052E-06                    1_GWF-(1,26543) -7.87427209E-07                    1_GWF-(1,14801)
        636         13         36 -5.57449953E-06                    1_GWF-(1,26487) -8.60551390E-07                    1_GWF-(1,14800)
        637         13         37 -5.17381397E-06                    1_GWF-(1,26622) -7.56651066E-07                    1_GWF-(1,14801)
        638         13         38  4.77572656E-06                    1_GWF-(1,26674) -3.47126265E-07                    1_GWF-(1,14800)
        639         13         39 -5.50112706E-06                    1_GWF-(1,26622) -1.48848691E-07                    1_GWF-(1,14800)
        640         13         40 -5.97749992E-06                    1_GWF-(1,26666) -5.78422455E-07                    1_GWF-(1,14801)
        641         13         41 -7.05963523E-06                    1_GWF-(1,26665) -7.57444863E-07                    1_GWF-(1,14800)
        642         13         42 -5.42024256E-06                    1_GWF-(1,26666) -8.56537237E-07                    1_GWF-(1,14801)
        643         13         43 -3.48119906E-06                    1_GWF-(1,26665) -7.23813753E-07                    1_GWF-(1,14800)
        644         13         44  4.67206222E-06                    1_GWF-(1,26665) -6.84575272E-07                    1_GWF-(1,14801)
        645         13         45  4.50026237E-06                    1_GWF-(1,26666) -4.19758699E-07                    1_GWF-(1,14800)
        646         13         46  4.19112341E-06                    1_GWF-(1,26420) -2.97292821E-07                    1_GWF-(1,14801)
        647         13         47  4.46513354E-06                    1_GWF-(1,26487) -3.18713147E-07                    1_GWF-(1,14799)
        648         13         48  4.53282607E-06                    1_GWF-(1,26420)  1.75059930E-07                    1_GWF-(1,10966)
        649         13         49  5.51541784E-06                    1_GWF-(1,26487) -2.33669837E-07                    1_GWF-(1,14801)
        650         13         50  5.61571061E-06                    1_GWF-(1,26588) -2.02296870E-07                    1_GWF-(1,14800)
        651         14          1 -5.21822475E-06                    1_GWF-(1,26588) -2.51895020E-07                    1_GWF-(1,14801)
        652         14          2 -5.38710112E-06                    1_GWF-(1,26487) -4.32553529E-08                    1_GWF-(1,14800)
        653         14          3 -4.32140811E-06                    1_GWF-(1,26420) -1.90174397E-07                    1_GWF-(1,14800)
        654         14          4 -3.85018349E-06                    1_GWF-(1,26487) -2.53884786E-07                    1_GWF-(1,14801)
        655         14          5 -4.13648894E-06                    1_GWF-(1,26649) -2.88522087E-07                    1_GWF-(1,14800)
        656         14          6 -5.47278663E-06                    1_GWF-(1,26648) -3.13515776E-07                    1_GWF-(1,14801)
        657         14          7 -6.69816537E-06                    1_GWF-(1,26665) -8.24447360E-08                    1_GWF-(1,14799)
        658         14          8 -3.70599914E-06                    1_GWF-(1,26622) -1.92393633E-07                    1_GWF-(1,14800)
        659         14          9  2.97489761E-06                    1_GWF-(1,26486) -3.82039477E-07                    1_GWF-(1,14801)
        660         14         10  3.71759187E-06                    1_GWF-(1,26487) -4.04137583E-07                    1_GWF-(1,14800)
        661         14         11  3.65625065E-06                    1_GWF-(1,26420) -4.88129272E-07                    1_GWF-(1,14801)
        662         14         12  3.31633620E-06                    1_GWF-(1,26623)  3.91903600E-07                    1_GWF-(1,14801)
        663         14         13  3.70488815E-06                    1_GWF-(1,26589) -1.26177911E-07                    1_GWF-(1,14801)
        664         14         14  3.70075091E-06                    1_GWF-(1,26588) -2.58378246E-07                    1_GWF-(1,14801)
        665         14         15  3.92699951E-06                    1_GWF-(1,26486)  4.55665780E-07                    1_GWF-(1,14801)
        666         14         16  2.96349607E-06                    1_GWF-(1,26544) -5.15101762E-07                    1_GWF-(1,14801)
        667         14         17  2.75469886E-06                    1_GWF-(1,26543)  4.17706106E-07                    1_GWF-(1,14801)
        668         14         18  3.03271041E-06                    1_GWF-(1,26665) -2.69127954E-07                    1_GWF-(1,14801)
        669         14         19  3.66298284E-06                    1_GWF-(1,26666) -7.07175699E-08                    1_GWF-(1,11206)
        670         14         20 -4.14742232E-06                    1_GWF-(1,26543)  2.26599306E-07                    1_GWF-(1,14801)
        671         14         21 -3.70043820E-06                    1_GWF-(1,26588) -3.98155591E-07                    1_GWF-(1,14801)
        672         14         22 -2.70117912E-06                    1_GWF-(1,26649)  4.68677961E-07                    1_GWF-(1,14801)
        673         14         23 -2.41754575E-06                    1_GWF-(1,26665) -5.10615386E-07                    1_GWF-(1,14801)
        674         14         24 -2.18930299E-06                    1_GWF-(1,25865)  4.87771813E-07                    1_GWF-(1,14801)
        675         14         25 -2.31139957E-06                    1_GWF-(1,26217) -4.45471961E-07                    1_GWF-(1,14801)
        676         14         26 -1.80140315E-06                    1_GWF-(1,26218)  3.75997030E-07                    1_GWF-(1,14801)
        677         14         27  2.79649482E-06                    1_GWF-(1,26588) -2.36702618E-07                    1_GWF-(1,14801)
        678         14         28  3.05568476E-06                    1_GWF-(1,26589)  6.43204930E-08                    1_GWF-(1,14801)
        679         14         29  2.91808450E-06                    1_GWF-(1,26588)  1.39691280E-07                    1_GWF-(1,14801)
        680         14         30  3.70331964E-06                    1_GWF-(1,26486)  2.31731117E-07                    1_GWF-(1,14800)
        681         14         31  3.61143189E-06                    1_GWF-(1,26487)  2.56203132E-07                    1_GWF-(1,14801)
        682         14         32  2.84150348E-06                    1_GWF-(1,26486)  1.68555986E-07                    1_GWF-(1,14800)
        683         14         33  2.21674241E-06                    1_GWF-(1,26422)  9.30869188E-08                    1_GWF-(1,14801)
        684         14         34 -2.28592988E-06                    1_GWF-(1,26487) -4.52999997E-08                    1_GWF-(1,10966)
        685         14         35 -2.60328365E-06                    1_GWF-(1,26420)  9.89265616E-08                    1_GWF-(1,14800)
        686         14         36  2.38904922E-06                    1_GWF-(1,26648)  1.37143106E-07                    1_GWF-(1,14801)
        687         14         37  2.24967605E-06                    1_GWF-(1,26649)  1.07888674E-07                    1_GWF-(1,14800)
        688         14         38 -1.68921368E-06                    1_GWF-(1,26218)  1.00345388E-07                    1_GWF-(1,10966)
        689         14         39 -2.17648893E-06                    1_GWF-(1,26622) -6.20183809E-08                    1_GWF-(1,10966)
        690         14         40 -2.52414058E-06                    1_GWF-(1,26623)  4.78222539E-08                    1_GWF-(1,14800)
        691         14         41 -2.23620179E-06                    1_GWF-(1,26622)  7.75454777E-08                    1_GWF-(1,14801)
        692         14         42 -2.09677388E-06                    1_GWF-(1,26588)  7.61790781E-08                    1_GWF-(1,14799)
        693         14         43  1.31357355E-06                    1_GWF-(1,26217)  1.24742311E-07                    1_GWF-(1,10966)
        694         14         44  1.53505064E-06                    1_GWF-(1,26350)  8.85427525E-08                    1_GWF-(1,10961)
        695         14         45  1.44925750E-06                    1_GWF-(1,26422)  1.47428970E-07                    1_GWF-(1,10966)
        696         14         46  1.02360107E-06                    1_GWF-(1,11424)  8.47550828E-08                    1_GWF-(1,10961)
        697         14         47 -8.99385111E-07                    1_GWF-(1,26350)  1.11347879E-07                    1_GWF-(1,10966)
        698         15          1 -5.36602302E-07                    1_GWF-(1,26648)  7.52008633E-08                    1_GWF-(1,10961)
 --------------------------------------------------------------------------------------------------------------------------------------



 MEMORY MANAGER TOTAL STORAGE BY DATA TYPE, IN MEGABYTES
 -------------------------------
                    ALLOCATED   
 DATA TYPE           MEMORY     
 -------------------------------
 Character        4.66090000E-02
 Logical          4.40000000E-05
 Integer          5.2037920     
 Real             11.901376     
 -------------------------------
 Total            17.151821     
 -------------------------------


 
 Run end date and time (yyyy/mm/dd hh:mm:ss): 2022/06/02  7:15:34
 Elapsed run time:  0.663 Seconds
 Normal termination of simulation.
