                                   MODFLOW 6
                U.S. GEOLOGICAL SURVEY MODULAR HYDROLOGIC MODEL
                            VERSION 6.2.2 07/30/2021

   MODFLOW 6 compiled Jul 31 2021 14:22:53 with IFORT compiler (ver. 19.10.3)

This software has been approved for release by the U.S. Geological 
Survey (USGS). Although the software has been subjected to rigorous 
review, the USGS reserves the right to update the software as needed 
pursuant to further analysis and review. No warranty, expressed or 
implied, is made by the USGS or the U.S. Government as to the 
functionality of the software and related material nor shall the 
fact of release constitute any such warranty. Furthermore, the 
software is released on condition that neither the USGS nor the U.S. 
Government shall be held liable for any damages resulting from its 
authorized or unauthorized use. Also refer to the USGS Water 
Resources Software User Rights Notice for complete use, copyright, 
and distribution information.


System command used to initiate simulation:
mf6

MODFLOW was compiled using uniform precision.

Real Variables
  KIND: 8
  TINY (smallest non-zero value):    2.225074-308
  HUGE (largest value):    1.797693+308
  PRECISION: 15
  BIT SIZE: 64

Integer Variables
  KIND: 4
  HUGE (largest value): 2147483647
  BIT SIZE: 32

Long Integer Variables
  KIND: 8
  HUGE (largest value): 9223372036854775807
  BIT SIZE: 64

Logical Variables
  KIND: 4
  BIT SIZE: 32
 

 OPENED mfsim.nam
 FILE TYPE:NAM   UNIT 1001   STATUS:OLD                 
 FORMAT:FORMATTED              ACCESS:SEQUENTIAL          
 ACTION:READ                

 # File generated by Flopy version 3.3.5 on 04/21/2022 at 16:08:48.

 READING SIMULATION OPTIONS
 END OF SIMULATION OPTIONS

 READING SIMULATION TIMING

 OPENED mfsim.tdis
 FILE TYPE:TDIS   UNIT 1002   STATUS:OLD                 
 FORMAT:FORMATTED              ACCESS:SEQUENTIAL          
 ACTION:READ                


 TDIS -- TEMPORAL DISCRETIZATION PACKAGE,
 VERSION 1 : 11/13/2014 - INPUT READ FROM UNIT 1002
 # File generated by Flopy version 3.3.5 on 04/21/2022 at 16:08:48.
 PROCESSING TDIS OPTIONS
    SIMULATION TIME UNIT IS SECONDS
 END OF TDIS OPTIONS
 PROCESSING TDIS DIMENSIONS
    1 STRESS PERIOD(S) IN SIMULATION
 END OF TDIS DIMENSIONS
 PROCESSING TDIS PERIODDATA


 STRESS PERIOD     LENGTH       TIME STEPS     MULTIPLIER FOR DELT
 ----------------------------------------------------------------------------
        1         99.00000          1                    1.000
 END OF TDIS PERIODDATA
 END OF SIMULATION TIMING

 READING SIMULATION MODELS
    GWF6 model ML will be created as model 1
 END OF SIMULATION MODELS

 READING SIMULATION EXCHANGES
 END OF SIMULATION EXCHANGES

 READING SOLUTIONGROUP

 Creating solution: SLN_1           

 OPENED mfsim.ims
 FILE TYPE:IMS   UNIT 1015   STATUS:OLD                 
 FORMAT:FORMATTED              ACCESS:SEQUENTIAL          
 ACTION:READ                

 END OF SIMULATION SOLUTIONGROUP

 IMS -- ITERATIVE MODEL SOLUTION PACKAGE, VERSION 6, 4/28/2017
         INPUT READ FROM UNIT 1015
 # File generated by Flopy version 3.3.5 on 04/21/2022 at 16:08:48.

 PROCESSING IMS OPTIONS
 END OF IMS OPTIONS

 PROCESSING IMS NONLINEAR
 END OF IMS NONLINEAR DATA
 ***UNDER-RELAXATION WILL NOT BE USED***
 
 ***IMS LINEAR SOLVER WILL BE USED***

 IMSLINEAR -- UNSTRUCTURED LINEAR SOLUTION PACKAGE, VERSION 8, 04/28/2017

 PROCESSING LINEAR DATA
 END OF LINEAR DATA
 
 OUTER ITERATION CONVERGENCE CRITERION    (DVCLOSE) =    0.100000E-04
 MAXIMUM NUMBER OF OUTER ITERATIONS        (MXITER) = 100
 SOLVER PRINTOUT INDEX                     (IPRIMS) = 2
 NONLINEAR ITERATION METHOD            (NONLINMETH) = 0
 LINEAR SOLUTION METHOD                   (LINMETH) = 1

       SOLUTION BY THE        CONJUGATE-GRADIENT       METHOD
 ------------------------------------------------------------------
 MAXIMUM OF 100 CALLS OF SOLUTION ROUTINE
 MAXIMUM OF 50 INTERNAL ITERATIONS PER CALL TO SOLUTION ROUTINE
 LINEAR ACCELERATION METHOD            = CG        
 MATRIX PRECONDITIONING TYPE           = INCOMPLETE LU       
 MATRIX SCALING APPROACH               = NO SCALING          
 MATRIX REORDERING APPROACH            = ORIGINAL ORDERING        
 NUMBER OF ORTHOGONALIZATIONS          = 0
 HEAD CHANGE CRITERION FOR CLOSURE     =    0.10000E-05
 RESIDUAL CHANGE CRITERION FOR CLOSURE =    0.10000E-04
 RESIDUAL CONVERGENCE OPTION           = 1
 RESIDUAL CONVERGENCE NORM             = INFINITY NORM S 
 RELAXATION FACTOR                     =    0.00000E+00



 
    Solving:  Stress period:     1    Time step:     1
 
1
                            STRESS PERIOD NO. 1, LENGTH =   99.00000    
                            -----------------------------------------------
                            NUMBER OF TIME STEPS = 1
                            MULTIPLIER FOR DELT =     1.000
                            INITIAL TIME STEP SIZE =   99.00000    

 SLN_1 OUTER ITERATION SUMMARY
 ----------------------------------------------------------------------------------------------------------
                                OUTER      INNER                    STEP   MAXIMUM CHANGE MODEL-(CELLID) OR
 OUTER ITERATION STEP       ITERATION  ITERATION  MAXIMUM CHANGE SUCCESS             MODEL-PACKAGE-(NUMBER)
 ----------------------------------------------------------------------------------------------------------
 Model                              1         50       455.75528                            1_GWF-(1,26381)
 Model                              2         50      -453.05935                            1_GWF-(1,26381)
 Model                              3         50       2.9266717                            1_GWF-(1,17296)
 Model                              4         50     -0.55503238                            1_GWF-(1,16215)
 Model                              5         50      0.10607808                            1_GWF-(1,22393)
 Model                              6         50 -4.79416398E-02                            1_GWF-(1,11426)
 Model                              7         50  3.75014758E-03                            1_GWF-(1,21861)
 Model                              8         50 -7.92441985E-04                            1_GWF-(1,11426)
 Model                              9         50  1.36471614E-04                            1_GWF-(1,21853)
 Model                             10         49 -2.56660319E-05                            1_GWF-(1,22307)
 Model                             11          1 -7.11252097E-07       *                    1_GWF-(1,26422)
 ----------------------------------------------------------------------------------------------------------


 11 CALLS TO NUMERICAL SOLUTION IN TIME STEP 1 STRESS PERIOD 1
 500 TOTAL ITERATIONS

 SLN_1 INNER ITERATION SUMMARY
 --------------------------------------------------------------------------------------------------------------------------------------
      TOTAL      OUTER      INNER                                                            MAXIMUM                                   
  ITERATION  ITERATION  ITERATION  MAXIMUM CHANGE      MAXIMUM CHANGE MODEL-(CELLID)        RESIDUAL    MAXIMUM RESIDUAL MODEL-(CELLID)
 --------------------------------------------------------------------------------------------------------------------------------------
          1          1          1       134.13460                    1_GWF-(1,26381)       1.9142103                     1_GWF-(1,7788)
          2          1          2       207.50604                    1_GWF-(1,26380)     -0.68299148                     1_GWF-(1,7788)
          3          1          3       116.41471                    1_GWF-(1,26444)     -0.44914350                    1_GWF-(1,26380)
          4          1          4       64.495889                    1_GWF-(1,26380)     -0.32106408                    1_GWF-(1,26381)
          5          1          5       49.234107                    1_GWF-(1,26381)     -0.24719711                     1_GWF-(1,7788)
          6          1          6       44.639650                    1_GWF-(1,26572)     -0.21348031                    1_GWF-(1,11157)
          7          1          7       46.847648                    1_GWF-(1,26647)     -0.18654195                    1_GWF-(1,11208)
          8          1          8       38.918654                    1_GWF-(1,26649)     -0.16295353                    1_GWF-(1,11180)
          9          1          9       28.210719                    1_GWF-(1,26589)     -0.11812845                    1_GWF-(1,11157)
         10          1         10       23.604013                    1_GWF-(1,26543)     -0.10619660                    1_GWF-(1,11158)
         11          1         11       18.444964                    1_GWF-(1,26544) -9.23020465E-02                    1_GWF-(1,11180)
         12          1         12       16.074734                    1_GWF-(1,26420)  7.76875221E-02                    1_GWF-(1,11153)
         13          1         13       14.076857                    1_GWF-(1,26422) -7.69527191E-02                    1_GWF-(1,11158)
         14          1         14       9.9418241                    1_GWF-(1,26350) -5.32515005E-02                    1_GWF-(1,11153)
         15          1         15       6.6619422                    1_GWF-(1,26622)  4.40316993E-02                    1_GWF-(1,11153)
         16          1         16      -5.6028037                    1_GWF-(1,26622)  4.77097024E-02                    1_GWF-(1,11194)
         17          1         17      -4.0954554                    1_GWF-(1,26623) -6.21362464E-02                    1_GWF-(1,11153)
         18          1         18      -4.7846876                    1_GWF-(1,26543)  6.44758450E-02                    1_GWF-(1,11153)
         19          1         19      -5.3795866                    1_GWF-(1,26588)  6.78214905E-02                    1_GWF-(1,11194)
         20          1         20       7.1596134                    1_GWF-(1,26588)  4.22613018E-02                    1_GWF-(1,11109)
         21          1         21      -4.9836253                    1_GWF-(1,26588) -5.59691304E-02                    1_GWF-(1,11194)
         22          1         22      -5.0099999                    1_GWF-(1,26543)  4.87559843E-02                    1_GWF-(1,11194)
         23          1         23      -4.8010619                    1_GWF-(1,26487)  4.79033256E-02                    1_GWF-(1,11151)
         24          1         24      -6.6589110                    1_GWF-(1,26486)  3.72937804E-02                    1_GWF-(1,11064)
         25          1         25      -5.8470231                    1_GWF-(1,26487)  4.15525397E-02                    1_GWF-(1,11152)
         26          1         26       6.4519122                    1_GWF-(1,26487)  4.87570018E-02                    1_GWF-(1,11151)
         27          1         27       6.6739158                    1_GWF-(1,26420)  5.09907748E-02                    1_GWF-(1,11108)
         28          1         28       3.9429990                    1_GWF-(1,26487)  3.34040321E-02                    1_GWF-(1,12769)
         29          1         29      -3.2799777                    1_GWF-(1,26672)  5.06718948E-02                    1_GWF-(1,11151)
         30          1         30       3.8613700                    1_GWF-(1,26623)  4.72313374E-02                    1_GWF-(1,11108)
         31          1         31       2.8668997                    1_GWF-(1,26586)  4.18425735E-02                    1_GWF-(1,11158)
         32          1         32       2.7851175                    1_GWF-(1,26422) -4.02637242E-02                    1_GWF-(1,11107)
         33          1         33       3.2021195                    1_GWF-(1,26544) -3.84677032E-02                    1_GWF-(1,11151)
         34          1         34       3.2383829                    1_GWF-(1,26665) -3.64122835E-02                    1_GWF-(1,11108)
         35          1         35      -2.7274001                    1_GWF-(1,26486) -2.75724930E-02                    1_GWF-(1,11107)
         36          1         36       2.7639651                    1_GWF-(1,26422) -3.15885179E-02                    1_GWF-(1,11153)
         37          1         37      -2.2417992                    1_GWF-(1,26422) -3.37534712E-02                    1_GWF-(1,11194)
         38          1         38      -2.7747975                    1_GWF-(1,26350) -3.41675976E-02                    1_GWF-(1,11109)
         39          1         39      -2.3452977                    1_GWF-(1,26622)  3.38446092E-02                    1_GWF-(1,11065)
         40          1         40      -2.7006865                    1_GWF-(1,26648)  3.53223546E-02                    1_GWF-(1,11106)
         41          1         41      -2.4645720                    1_GWF-(1,26649)  3.19672746E-02                    1_GWF-(1,11152)
         42          1         42      -2.3048979                    1_GWF-(1,26623) -3.64745506E-02                    1_GWF-(1,11101)
         43          1         43      -2.2517387                    1_GWF-(1,18977) -3.44519961E-02                    1_GWF-(1,11151)
         44          1         44      -2.2094985                    1_GWF-(1,21659)  3.33469666E-02                    1_GWF-(1,11206)
         45          1         45      -2.1449872                    1_GWF-(1,21559) -3.46868812E-02                    1_GWF-(1,11194)
         46          1         46       2.0292361                    1_GWF-(1,19061)  2.62195440E-02                    1_GWF-(1,11194)
         47          1         47       2.1230380                    1_GWF-(1,19060)  2.33770103E-02                    1_GWF-(1,11109)
         48          1         48       1.4526907                    1_GWF-(1,19057) -1.60595871E-02                    1_GWF-(1,11152)
         49          1         49       1.2811898                    1_GWF-(1,19862)  1.23579564E-02                    1_GWF-(1,11063)
         50          1         50       1.1734001                    1_GWF-(1,19860)  1.06567295E-02                    1_GWF-(1,11151)
         51          2          1      -454.94127                    1_GWF-(1,26381)      -3.3822616                    1_GWF-(1,26381)
         52          2          2      -164.06160                    1_GWF-(1,26513)       1.1253707                    1_GWF-(1,26381)
         53          2          3      -76.646132                    1_GWF-(1,26440)      0.77881568                    1_GWF-(1,26506)
         54          2          4      -47.713725                    1_GWF-(1,26267)     -0.32055625                    1_GWF-(1,26506)
         55          2          5      -40.201287                    1_GWF-(1,26649)     -0.29744087                    1_GWF-(1,26505)
         56          2          6      -35.244000                    1_GWF-(1,26623)     -0.31402826                    1_GWF-(1,26381)
         57          2          7      -31.312217                    1_GWF-(1,26588)     -0.30117465                    1_GWF-(1,26506)
         58          2          8      -23.947049                    1_GWF-(1,26544)      0.14067220                    1_GWF-(1,26506)
         59          2          9      -19.965768                    1_GWF-(1,26487)     -0.12453260                    1_GWF-(1,26381)
         60          2         10      -14.258300                    1_GWF-(1,26421)      0.13680833                    1_GWF-(1,26381)
         61          2         11      -13.402138                    1_GWF-(1,26348)  6.41368081E-02                    1_GWF-(1,26506)
         62          2         12      -9.6179026                    1_GWF-(1,26218) -7.49758438E-02                    1_GWF-(1,26381)
         63          2         13      -5.6748120                    1_GWF-(1,26216) -8.38437270E-02                    1_GWF-(1,26506)
         64          2         14      -4.7219364                    1_GWF-(1,26649)  3.27013928E-02                    1_GWF-(1,26551)
         65          2         15      -6.0282421                    1_GWF-(1,26622) -6.84077339E-02                    1_GWF-(1,26381)
         66          2         16      -6.3351103                    1_GWF-(1,26623) -7.41578706E-02                    1_GWF-(1,26506)
         67          2         17      -5.3609922                    1_GWF-(1,26622) -4.33690286E-02                    1_GWF-(1,26447)
         68          2         18       5.1513939                    1_GWF-(1,26422) -7.15454674E-02                    1_GWF-(1,26381)
         69          2         19       4.7212260                    1_GWF-(1,26218) -6.51449068E-02                    1_GWF-(1,26506)
         70          2         20       4.9617792                    1_GWF-(1,26543) -3.48568743E-02                    1_GWF-(1,26447)
         71          2         21       6.1993634                    1_GWF-(1,26588) -7.13004253E-02                    1_GWF-(1,26381)
         72          2         22       6.8282462                    1_GWF-(1,26543) -5.95674394E-02                    1_GWF-(1,26506)
         73          2         23       5.3300219                    1_GWF-(1,26588) -4.75111035E-02                    1_GWF-(1,26447)
         74          2         24      -4.2206865                    1_GWF-(1,26487) -7.95888554E-02                    1_GWF-(1,26381)
         75          2         25      -5.8120663                    1_GWF-(1,26486) -5.64075938E-02                    1_GWF-(1,26506)
         76          2         26      -7.3304307                    1_GWF-(1,26487)  5.53214465E-02                    1_GWF-(1,26381)
         77          2         27      -6.3892697                    1_GWF-(1,26486)  9.55484504E-02                    1_GWF-(1,26506)
         78          2         28      -4.0526429                    1_GWF-(1,26487) -6.19823467E-02                    1_GWF-(1,26506)
         79          2         29      -2.8302755                    1_GWF-(1,21717) -3.71318237E-02                    1_GWF-(1,26447)
         80          2         30      -2.7860055                    1_GWF-(1,26543)  7.02869688E-02                    1_GWF-(1,26506)
         81          2         31      -2.8664304                    1_GWF-(1,26217) -5.63457222E-02                    1_GWF-(1,26506)
         82          2         32      -2.2878502                    1_GWF-(1,26421) -2.68057971E-02                    1_GWF-(1,26378)
         83          2         33       2.6157737                    1_GWF-(1,26486) -4.59872739E-02                    1_GWF-(1,26381)
         84          2         34      -2.3064927                    1_GWF-(1,21349) -5.44092089E-02                    1_GWF-(1,26506)
         85          2         35       2.9287529                    1_GWF-(1,26422) -2.54455938E-02                    1_GWF-(1,26378)
         86          2         36       2.8391541                    1_GWF-(1,26350) -3.18571835E-02                    1_GWF-(1,26381)
         87          2         37       2.4794145                    1_GWF-(1,26422) -4.91193300E-02                    1_GWF-(1,26506)
         88          2         38       2.9288422                    1_GWF-(1,26350)  2.41839290E-02                    1_GWF-(1,26506)
         89          2         39       3.6044789                    1_GWF-(1,26422) -3.50351073E-02                    1_GWF-(1,26381)
         90          2         40       2.8373896                    1_GWF-(1,26350) -6.31075872E-02                    1_GWF-(1,26506)
         91          2         41       1.9143596                    1_GWF-(1,26217)  4.31695996E-02                    1_GWF-(1,26506)
         92          2         42       2.0642775                    1_GWF-(1,18983)  2.61942765E-02                    1_GWF-(1,26378)
         93          2         43       1.9536378                    1_GWF-(1,21289)  5.52174609E-02                    1_GWF-(1,26381)
         94          2         44       1.6088245                    1_GWF-(1,21556)  4.68282460E-02                    1_GWF-(1,26506)
         95          2         45      -1.2605913                    1_GWF-(1,19103) -1.66116804E-02                    1_GWF-(1,26550)
         96          2         46      -1.4517389                    1_GWF-(1,19059)  1.97510568E-02                    1_GWF-(1,26381)
         97          2         47      -1.4268718                    1_GWF-(1,19054) -2.75940372E-02                    1_GWF-(1,26381)
         98          2         48      -1.1356410                    1_GWF-(1,19178) -2.13253528E-02                    1_GWF-(1,26506)
         99          2         49      -1.1266581                    1_GWF-(1,19860)  9.64695321E-03                    1_GWF-(1,15108)
        100          2         50     -0.95627363                    1_GWF-(1,19907) -1.47889287E-02                    1_GWF-(1,26381)
        101          3          1      0.38515467                    1_GWF-(1,26500)  1.09200146E-02                    1_GWF-(1,15108)
        102          3          2      0.46943136                    1_GWF-(1,22785)  1.02862629E-02                    1_GWF-(1,15109)
        103          3          3      0.45252724                    1_GWF-(1,26217) -1.28456237E-02                    1_GWF-(1,26381)
        104          3          4      0.46740362                    1_GWF-(1,14634)  1.34827420E-02                    1_GWF-(1,26381)
        105          3          5     -0.48188141                    1_GWF-(1,19866) -1.34896282E-02                    1_GWF-(1,15109)
        106          3          6     -0.46965494                    1_GWF-(1,25514) -1.40517661E-02                    1_GWF-(1,15108)
        107          3          7     -0.55350963                    1_GWF-(1,14651) -1.77655081E-02                    1_GWF-(1,15109)
        108          3          8     -0.74304790                    1_GWF-(1,18972)  1.62823188E-02                    1_GWF-(1,15109)
        109          3          9     -0.60241770                    1_GWF-(1,19007)  1.54633170E-02                    1_GWF-(1,15108)
        110          3         10      0.38812937                    1_GWF-(1,26674)  1.96890420E-02                    1_GWF-(1,15109)
        111          3         11      0.46498727                    1_GWF-(1,20555)  1.69744947E-02                    1_GWF-(1,15108)
        112          3         12     -0.49797405                    1_GWF-(1,26422)  1.54022005E-02                    1_GWF-(1,15109)
        113          3         13      0.39079624                    1_GWF-(1,19052)  1.02721598E-02                    1_GWF-(1,15108)
        114          3         14     -0.36865010                    1_GWF-(1,26422) -9.34106493E-03                    1_GWF-(1,26381)
        115          3         15     -0.58460848                    1_GWF-(1,26350) -5.63592685E-03                    1_GWF-(1,26547)
        116          3         16     -0.54465053                    1_GWF-(1,26422)  3.62856836E-03                    1_GWF-(1,26381)
        117          3         17      0.42629720                    1_GWF-(1,26422) -7.86590759E-03                    1_GWF-(1,26381)
        118          3         18      0.42952147                    1_GWF-(1,26350) -6.61501133E-03                    1_GWF-(1,15109)
        119          3         19      0.28324522                    1_GWF-(1,26421) -7.18648877E-03                    1_GWF-(1,15108)
        120          3         20      0.26969208                    1_GWF-(1,26544) -7.61795140E-03                    1_GWF-(1,15109)
        121          3         21      0.28534159                    1_GWF-(1,26422)  6.46291211E-03                    1_GWF-(1,26381)
        122          3         22      0.31806776                    1_GWF-(1,26420)  4.56804000E-03                    1_GWF-(1,15108)
        123          3         23      0.38242902                    1_GWF-(1,26487) -6.54182582E-03                    1_GWF-(1,26381)
        124          3         24      0.44839786                    1_GWF-(1,26486)  7.62467972E-03                    1_GWF-(1,26381)
        125          3         25      0.52056902                    1_GWF-(1,26487)  3.39301140E-03                    1_GWF-(1,26547)
        126          3         26      0.47672911                    1_GWF-(1,26420) -6.94882336E-03                    1_GWF-(1,26381)
        127          3         27     -0.41075016                    1_GWF-(1,26486)  5.45575109E-03                    1_GWF-(1,26381)
        128          3         28     -0.35281539                    1_GWF-(1,26487)  2.72524646E-03                    1_GWF-(1,26547)
        129          3         29     -0.43990521                    1_GWF-(1,26543) -6.15826264E-03                    1_GWF-(1,26381)
        130          3         30     -0.35290573                    1_GWF-(1,26542)  3.57051118E-03                    1_GWF-(1,26381)
        131          3         31     -0.32707951                    1_GWF-(1,26543) -2.33862560E-03                    1_GWF-(1,26506)
        132          3         32     -0.27198080                    1_GWF-(1,26588) -4.55849580E-03                    1_GWF-(1,26381)
        133          3         33     -0.19418425                    1_GWF-(1,26422) -3.06550472E-03                    1_GWF-(1,15109)
        134          3         34     -0.12821095                    1_GWF-(1,26350) -3.45982702E-03                    1_GWF-(1,15108)
        135          3         35      0.17643803                    1_GWF-(1,26623) -3.18713456E-03                    1_GWF-(1,26381)
        136          3         36      0.17496044                    1_GWF-(1,26622)  1.04048699E-03                    1_GWF-(1,15109)
        137          3         37      0.20955637                    1_GWF-(1,26649)  2.13847110E-03                    1_GWF-(1,26381)
        138          3         38      0.19452870                    1_GWF-(1,26622) -2.64269383E-03                    1_GWF-(1,26381)
        139          3         39      0.17692708                    1_GWF-(1,26649)  3.63429315E-03                    1_GWF-(1,15109)
        140          3         40     -0.21473897                    1_GWF-(1,26665)  2.70080919E-03                    1_GWF-(1,26381)
        141          3         41      0.21896470                    1_GWF-(1,26665) -2.44181269E-03                    1_GWF-(1,26381)
        142          3         42     -0.24637698                    1_GWF-(1,26665)  3.35188660E-03                    1_GWF-(1,15109)
        143          3         43     -0.16428897                    1_GWF-(1,26666) -5.40304136E-03                    1_GWF-(1,15109)
        144          3         44      0.15575921                    1_GWF-(1,26589)  5.94390054E-03                    1_GWF-(1,15109)
        145          3         45      0.16474614                    1_GWF-(1,26665) -7.91927277E-03                    1_GWF-(1,15109)
        146          3         46      0.17981013                    1_GWF-(1,26663)  7.73267186E-03                    1_GWF-(1,15109)
        147          3         47     -0.19820788                    1_GWF-(1,26543) -8.43159807E-03                    1_GWF-(1,15109)
        148          3         48     -0.18703913                    1_GWF-(1,26542)  7.31529387E-03                    1_GWF-(1,15109)
        149          3         49     -0.20716731                    1_GWF-(1,26623) -7.44387649E-03                    1_GWF-(1,15109)
        150          3         50     -0.16371654                    1_GWF-(1,26649)  5.44562157E-03                    1_GWF-(1,15109)
        151          4          1     -0.52282873                    1_GWF-(1,16212)  2.15940478E-03                    1_GWF-(1,15108)
        152          4          2     -0.25373382                    1_GWF-(1,16130)  3.09608474E-03                    1_GWF-(1,15109)
        153          4          3     -0.13752643                    1_GWF-(1,16234)  4.05921682E-03                    1_GWF-(1,15108)
        154          4          4     -0.12282924                    1_GWF-(1,16242)  4.56930235E-03                    1_GWF-(1,15109)
        155          4          5     -0.11073687                    1_GWF-(1,16586) -4.18458856E-03                    1_GWF-(1,15109)
        156          4          6 -9.82733833E-02                    1_GWF-(1,16594)  3.92818000E-03                    1_GWF-(1,15109)
        157          4          7 -8.46644707E-02                    1_GWF-(1,16617) -3.19300001E-03                    1_GWF-(1,15109)
        158          4          8  7.02054294E-02                    1_GWF-(1,26217)  2.19272940E-03                    1_GWF-(1,15109)
        159          4          9  6.95940651E-02                    1_GWF-(1,26218)  1.14054727E-03                    1_GWF-(1,15108)
        160          4         10 -7.69943860E-02                    1_GWF-(1,26665) -5.05640699E-04                    1_GWF-(1,26665)
        161          4         11  9.73383253E-02                    1_GWF-(1,26665)  8.45973147E-04                    1_GWF-(1,15109)
        162          4         12 -9.40102346E-02                    1_GWF-(1,26665)  1.15500687E-03                    1_GWF-(1,15108)
        163          4         13  6.79440050E-02                    1_GWF-(1,26665)  9.18233461E-04                    1_GWF-(1,15109)
        164          4         14 -6.75436796E-02                    1_GWF-(1,26649) -4.01739837E-04                    1_GWF-(1,26649)
        165          4         15 -7.72123212E-02                    1_GWF-(1,26622)  6.70685101E-04                    1_GWF-(1,15108)
        166          4         16 -8.05327292E-02                    1_GWF-(1,26649)  1.05590698E-03                    1_GWF-(1,15109)
        167          4         17 -8.79109834E-02                    1_GWF-(1,26622) -8.07697203E-04                    1_GWF-(1,15109)
        168          4         18 -7.25920763E-02                    1_GWF-(1,26623)  4.60586688E-04                    1_GWF-(1,11050)
        169          4         19 -5.05343611E-02                    1_GWF-(1,26589)  5.48619223E-04                    1_GWF-(1,15109)
        170          4         20 -6.52490421E-02                    1_GWF-(1,26588)  9.22395223E-04                    1_GWF-(1,15108)
        171          4         21  6.62746216E-02                    1_GWF-(1,26588)  9.95994462E-04                    1_GWF-(1,15109)
        172          4         22  7.45294899E-02                    1_GWF-(1,26543)  4.47462573E-04                    1_GWF-(1,15108)
        173          4         23  6.57214560E-02                    1_GWF-(1,26588)  4.77529460E-04                    1_GWF-(1,15108)
        174          4         24  6.51024398E-02                    1_GWF-(1,26486)  1.10713010E-03                    1_GWF-(1,15109)
        175          4         25  5.98109462E-02                    1_GWF-(1,26487)  1.06326365E-03                    1_GWF-(1,15108)
        176          4         26  6.66842450E-02                    1_GWF-(1,26486)  9.08309996E-04                    1_GWF-(1,15109)
        177          4         27  7.08578413E-02                    1_GWF-(1,26487)  3.65460354E-04                    1_GWF-(1,26487)
        178          4         28  4.97795622E-02                    1_GWF-(1,26420) -6.64124934E-04                    1_GWF-(1,15109)
        179          4         29  3.36866980E-02                    1_GWF-(1,26487)  1.10908884E-03                    1_GWF-(1,15109)
        180          4         30  2.15380193E-02                    1_GWF-(1,26420) -1.20100183E-03                    1_GWF-(1,15109)
        181          4         31 -2.37557952E-02                    1_GWF-(1,26420)  1.33989951E-03                    1_GWF-(1,15109)
        182          4         32 -2.36238871E-02                    1_GWF-(1,26421) -1.41128211E-03                    1_GWF-(1,15109)
        183          4         33 -2.67514039E-02                    1_GWF-(1,26350) -1.24736107E-03                    1_GWF-(1,15108)
        184          4         34 -3.98236746E-02                    1_GWF-(1,26422) -1.15209916E-03                    1_GWF-(1,15109)
        185          4         35 -4.94136062E-02                    1_GWF-(1,26350)  7.29851662E-04                    1_GWF-(1,15109)
        186          4         36 -6.21015315E-02                    1_GWF-(1,26422) -3.79771737E-04                    1_GWF-(1,16792)
        187          4         37 -6.04269397E-02                    1_GWF-(1,26350) -6.19211003E-04                    1_GWF-(1,15109)
        188          4         38 -5.42987119E-02                    1_GWF-(1,26422) -1.05434156E-03                    1_GWF-(1,15108)
        189          4         39 -3.90249540E-02                    1_GWF-(1,26350) -1.37099332E-03                    1_GWF-(1,15109)
        190          4         40 -3.07161317E-02                    1_GWF-(1,24984)  1.46135532E-03                    1_GWF-(1,15109)
        191          4         41  2.54576231E-02                    1_GWF-(1,26422) -1.36688742E-03                    1_GWF-(1,15109)
        192          4         42 -2.67014057E-02                    1_GWF-(1,20216)  1.33756979E-03                    1_GWF-(1,15109)
        193          4         43  2.85625796E-02                    1_GWF-(1,26422) -1.24068286E-03                    1_GWF-(1,15109)
        194          4         44  2.56594636E-02                    1_GWF-(1,26350) -1.00802427E-03                    1_GWF-(1,15108)
        195          4         45  2.14456004E-02                    1_GWF-(1,26422) -8.30224916E-04                    1_GWF-(1,15109)
        196          4         46 -1.78528295E-02                     1_GWF-(1,8450) -5.67340752E-04                    1_GWF-(1,15108)
        197          4         47 -1.52255836E-02                     1_GWF-(1,8345) -4.39433717E-04                    1_GWF-(1,15109)
        198          4         48  1.64647349E-02                    1_GWF-(1,26672)  2.97124393E-04                    1_GWF-(1,12416)
        199          4         49  1.60121950E-02                    1_GWF-(1,25663)  2.82991436E-04                    1_GWF-(1,12412)
        200          4         50  1.48299642E-02                    1_GWF-(1,26109)  2.64048939E-04                    1_GWF-(1,12411)
        201          5          1 -4.18819490E-02                    1_GWF-(1,10745)  1.53846169E-04                    1_GWF-(1,12415)
        202          5          2 -2.62940964E-02                    1_GWF-(1,15063) -1.30609546E-04                    1_GWF-(1,11426)
        203          5          3 -1.69641012E-02                    1_GWF-(1,11435)  1.35597593E-04                    1_GWF-(1,10745)
        204          5          4  1.58974239E-02                    1_GWF-(1,15747)  1.39314505E-04                    1_GWF-(1,12415)
        205          5          5  1.61049189E-02                    1_GWF-(1,15072) -1.79515936E-04                    1_GWF-(1,11426)
        206          5          6  1.70718427E-02                    1_GWF-(1,15063)  1.48830220E-04                    1_GWF-(1,11426)
        207          5          7  1.33384433E-02                    1_GWF-(1,11434)  1.20068290E-04                    1_GWF-(1,12375)
        208          5          8  1.31399770E-02                    1_GWF-(1,24771) -1.29191925E-04                    1_GWF-(1,11426)
        209          5          9  1.25815689E-02                    1_GWF-(1,24696)  1.85830085E-04                    1_GWF-(1,11426)
        210          5         10  1.19467927E-02                    1_GWF-(1,24810) -1.08087961E-04                    1_GWF-(1,11426)
        211          5         11  1.32029560E-02                    1_GWF-(1,24810)  9.16768107E-05                    1_GWF-(1,16459)
        212          5         12  1.27410829E-02                    1_GWF-(1,26350)  1.57537682E-04                    1_GWF-(1,11426)
        213          5         13  1.52475515E-02                    1_GWF-(1,26422) -1.45475257E-04                    1_GWF-(1,11426)
        214          5         14  1.61843828E-02                    1_GWF-(1,26350)  1.11908678E-04                    1_GWF-(1,11058)
        215          5         15  1.72140299E-02                    1_GWF-(1,26422)  1.31839855E-04                    1_GWF-(1,11050)
        216          5         16  1.57457822E-02                    1_GWF-(1,26350) -1.32196777E-04                    1_GWF-(1,11426)
        217          5         17  1.44271927E-02                    1_GWF-(1,26422)  9.70867516E-05                    1_GWF-(1,11058)
        218          5         18  1.09020925E-02                    1_GWF-(1,26544)  1.21269064E-04                    1_GWF-(1,11053)
        219          5         19  1.02813433E-02                    1_GWF-(1,26486) -8.60639880E-05                    1_GWF-(1,11426)
        220          5         20 -8.29594030E-03                    1_GWF-(1,26486) -7.41932691E-05                    1_GWF-(1,10342)
        221          5         21 -8.69587668E-03                    1_GWF-(1,26588)  8.34878426E-05                    1_GWF-(1,11058)
        222          5         22 -8.41036840E-03                    1_GWF-(1,26420)  1.20656917E-04                    1_GWF-(1,11052)
        223          5         23 -7.03062466E-03                    1_GWF-(1,26623)  1.21437439E-04                    1_GWF-(1,11050)
        224          5         24 -5.63781464E-03                    1_GWF-(1,26586)  8.93080783E-05                    1_GWF-(1,11044)
        225          5         25 -5.97466066E-03                    1_GWF-(1,26623)  8.86733312E-05                    1_GWF-(1,11053)
        226          5         26 -5.62537804E-03                    1_GWF-(1,26622)  9.79186115E-05                    1_GWF-(1,11051)
        227          5         27 -7.31317256E-03                    1_GWF-(1,26623)  9.15277607E-05                    1_GWF-(1,11028)
        228          5         28 -8.76575009E-03                    1_GWF-(1,26622)  6.27712227E-05                    1_GWF-(1,11062)
        229          5         29 -8.66242305E-03                    1_GWF-(1,26649)  7.17743685E-05                    1_GWF-(1,11052)
        230          5         30  8.13195089E-03                    1_GWF-(1,26649)  8.07433084E-05                    1_GWF-(1,11050)
        231          5         31  5.15625306E-03                    1_GWF-(1,26648)  5.69556878E-05                    1_GWF-(1,11049)
        232          5         32  5.08396207E-03                    1_GWF-(1,26420)  6.12822721E-05                    1_GWF-(1,11053)
        233          5         33  7.00933664E-03                    1_GWF-(1,26487)  8.83885119E-05                    1_GWF-(1,11051)
        234          5         34  7.70054279E-03                    1_GWF-(1,26588)  8.28215141E-05                    1_GWF-(1,11029)
        235          5         35  7.62895445E-03                    1_GWF-(1,26487)  7.01290964E-05                    1_GWF-(1,11059)
        236          5         36  6.44679437E-03                    1_GWF-(1,26588)  7.53674864E-05                    1_GWF-(1,15109)
        237          5         37  4.60179648E-03                    1_GWF-(1,26422) -7.63093148E-05                    1_GWF-(1,15109)
        238          5         38  4.36685521E-03                    1_GWF-(1,26666) -5.77889801E-05                    1_GWF-(1,11054)
        239          5         39  6.87048725E-03                    1_GWF-(1,26665)  6.42732968E-05                    1_GWF-(1,11056)
        240          5         40 -7.24737580E-03                    1_GWF-(1,26665) -7.70951521E-05                    1_GWF-(1,15109)
        241          5         41  6.73482949E-03                    1_GWF-(1,26665)  7.87329410E-05                    1_GWF-(1,15109)
        242          5         42 -5.45218598E-03                    1_GWF-(1,26218)  6.79278114E-05                    1_GWF-(1,14944)
        243          5         43 -6.53424453E-03                    1_GWF-(1,26217) -6.77513396E-05                    1_GWF-(1,11062)
        244          5         44 -7.14492825E-03                    1_GWF-(1,26218) -6.96678930E-05                    1_GWF-(1,11146)
        245          5         45 -5.64148773E-03                    1_GWF-(1,26217) -7.24978094E-05                    1_GWF-(1,11061)
        246          5         46 -4.66040151E-03                    1_GWF-(1,26218) -5.67629942E-05                    1_GWF-(1,15115)
        247          5         47  3.97135905E-03                    1_GWF-(1,16253) -5.65548934E-05                    1_GWF-(1,15119)
        248          5         48  3.85184053E-03                    1_GWF-(1,16234)  6.27197857E-05                    1_GWF-(1,15119)
        249          5         49  3.69707821E-03                    1_GWF-(1,16200)  7.43549506E-05                    1_GWF-(1,15118)
        250          5         50 -4.81016198E-03                    1_GWF-(1,20978) -1.06547908E-04                    1_GWF-(1,11147)
        251          6          1 -3.37784228E-02                    1_GWF-(1,11426) -6.54244817E-05                    1_GWF-(1,11426)
        252          6          2 -1.58786250E-02                    1_GWF-(1,10745) -5.67864540E-05                    1_GWF-(1,11421)
        253          6          3 -8.72445581E-03                    1_GWF-(1,15063)  3.06290989E-05                    1_GWF-(1,15108)
        254          6          4 -5.61505926E-03                    1_GWF-(1,15068)  3.71022951E-05                    1_GWF-(1,15109)
        255          6          5 -3.60334952E-03                    1_GWF-(1,15058) -3.76616966E-05                    1_GWF-(1,15109)
        256          6          6 -2.38242157E-03                    1_GWF-(1,11450)  5.30362403E-05                    1_GWF-(1,15109)
        257          6          7  2.76482530E-03                    1_GWF-(1,26218) -3.99105453E-05                    1_GWF-(1,15109)
        258          6          8  3.02421529E-03                    1_GWF-(1,26217)  4.30789242E-05                    1_GWF-(1,15109)
        259          6          9  3.14373858E-03                    1_GWF-(1,26218)  3.35438638E-05                    1_GWF-(1,15108)
        260          6         10  2.41316588E-03                    1_GWF-(1,26217) -2.29651220E-05                    1_GWF-(1,15108)
        261          6         11  2.45944168E-03                    1_GWF-(1,26665) -2.00896008E-05                    1_GWF-(1,15109)
        262          6         12 -3.37657408E-03                    1_GWF-(1,26665)  2.07603940E-05                    1_GWF-(1,15120)
        263          6         13 -2.95688318E-03                    1_GWF-(1,26666)  3.36890383E-05                    1_GWF-(1,15109)
        264          6         14 -2.46412264E-03                    1_GWF-(1,26665)  2.91121431E-05                    1_GWF-(1,11052)
        265          6         15 -2.13737939E-03                    1_GWF-(1,26218)  2.43969633E-05                    1_GWF-(1,11059)
        266          6         16 -2.25029580E-03                    1_GWF-(1,26487)  2.96822990E-05                    1_GWF-(1,11028)
        267          6         17 -2.45719488E-03                    1_GWF-(1,26588)  2.22939548E-05                    1_GWF-(1,11130)
        268          6         18 -2.41011997E-03                    1_GWF-(1,26487)  2.53995359E-05                    1_GWF-(1,10342)
        269          6         19 -2.06310598E-03                    1_GWF-(1,26420)  1.81622658E-05                    1_GWF-(1,11141)
        270          6         20  1.53814713E-03                    1_GWF-(1,26420)  2.60089383E-05                    1_GWF-(1,10961)
        271          6         21 -1.47363452E-03                    1_GWF-(1,26649)  1.86867759E-05                    1_GWF-(1,11044)
        272          6         22  1.73365117E-03                    1_GWF-(1,26649)  2.71296534E-05                    1_GWF-(1,11043)
        273          6         23 -2.25448507E-03                    1_GWF-(1,26649)  1.92817894E-05                    1_GWF-(1,11034)
        274          6         24  2.16247115E-03                    1_GWF-(1,26649)  2.35230977E-05                    1_GWF-(1,10961)
        275          6         25  1.50223911E-03                    1_GWF-(1,26622)  1.86931880E-05                    1_GWF-(1,11060)
        276          6         26  9.78241621E-04                    1_GWF-(1,26623)  2.54441530E-05                    1_GWF-(1,11059)
        277          6         27 -8.63021008E-04                    1_GWF-(1,11408)  2.34526996E-05                    1_GWF-(1,11050)
        278          6         28  1.04756969E-03                    1_GWF-(1,26623) -2.12896443E-05                    1_GWF-(1,11063)
        279          6         29  9.71312059E-04                    1_GWF-(1,26586) -2.21195138E-05                    1_GWF-(1,11149)
        280          6         30  1.07571852E-03                    1_GWF-(1,26623)  1.98177227E-05                    1_GWF-(1,11100)
        281          6         31 -1.32016508E-03                    1_GWF-(1,26588)  2.08277356E-05                    1_GWF-(1,11150)
        282          6         32  1.24371896E-03                    1_GWF-(1,26588) -2.61631074E-05                    1_GWF-(1,11149)
        283          6         33  1.42008223E-03                    1_GWF-(1,26486) -3.40069517E-05                    1_GWF-(1,11150)
        284          6         34 -1.33811632E-03                    1_GWF-(1,19876) -3.06589911E-05                    1_GWF-(1,11065)
        285          6         35  1.55668151E-03                    1_GWF-(1,26422)  3.64734078E-05                    1_GWF-(1,11065)
        286          6         36  1.70439365E-03                    1_GWF-(1,26350) -3.22135722E-05                    1_GWF-(1,11029)
        287          6         37 -1.89232504E-03                    1_GWF-(1,26350)  2.70237114E-05                    1_GWF-(1,11150)
        288          6         38 -2.05360690E-03                    1_GWF-(1,26422)  3.11856138E-05                    1_GWF-(1,11065)
        289          6         39 -1.76933231E-03                    1_GWF-(1,26350)  2.30163036E-05                    1_GWF-(1,11149)
        290          6         40 -1.49435424E-03                    1_GWF-(1,26422)  2.93063761E-05                    1_GWF-(1,15109)
        291          6         41 -1.10537726E-03                    1_GWF-(1,26350) -3.31053592E-05                    1_GWF-(1,15109)
        292          6         42 -7.60377799E-04                    1_GWF-(1,26422)  3.44382699E-05                    1_GWF-(1,15109)
        293          6         43 -6.56798888E-04                    1_GWF-(1,24768) -3.01449784E-05                    1_GWF-(1,15109)
        294          6         44 -5.45318611E-04                    1_GWF-(1,12974)  2.67198663E-05                    1_GWF-(1,15109)
        295          6         45 -6.68093344E-04                     1_GWF-(1,8450) -2.13973904E-05                    1_GWF-(1,15109)
        296          6         46 -6.26778669E-04                     1_GWF-(1,8452) -1.93598930E-05                    1_GWF-(1,11059)
        297          6         47 -5.15807476E-04                    1_GWF-(1,26672)  1.63894338E-05                    1_GWF-(1,11043)
        298          6         48  5.87893728E-04                    1_GWF-(1,26672)  1.75257527E-05                    1_GWF-(1,11056)
        299          6         49 -5.52381379E-04                    1_GWF-(1,26672)  1.48139380E-05                    1_GWF-(1,15108)
        300          6         50  5.53099583E-04                    1_GWF-(1,26672) -1.56560801E-05                    1_GWF-(1,15108)
        301          7          1 -5.40507161E-04                    1_GWF-(1,26672)  1.40372420E-05                    1_GWF-(1,15108)
        302          7          2  5.74787586E-04                    1_GWF-(1,26672)  1.26169974E-05                    1_GWF-(1,15109)
        303          7          3 -5.32053556E-04                    1_GWF-(1,26672)  1.11886126E-05                    1_GWF-(1,11106)
        304          7          4  4.47601230E-04                     1_GWF-(1,8220)  1.28786820E-05                    1_GWF-(1,11039)
        305          7          5  5.84548540E-04                     1_GWF-(1,8450) -1.33374363E-05                    1_GWF-(1,11044)
        306          7          6  5.03487398E-04                     1_GWF-(1,8347)  1.44592926E-05                    1_GWF-(1,11044)
        307          7          7  3.56650075E-04                    1_GWF-(1,24706) -1.47256632E-05                    1_GWF-(1,11106)
        308          7          8  4.22508809E-04                    1_GWF-(1,24769) -1.23287550E-05                    1_GWF-(1,11138)
        309          7          9  3.73637611E-04                    1_GWF-(1,20229)  1.27294026E-05                    1_GWF-(1,11138)
        310          7         10  4.01849577E-04                    1_GWF-(1,24764) -1.21166009E-05                    1_GWF-(1,11044)
        311          7         11  4.36224624E-04                    1_GWF-(1,26422)  9.83550484E-06                    1_GWF-(1,10963)
        312          7         12  4.90807111E-04                    1_GWF-(1,26350) -1.23916341E-05                    1_GWF-(1,15109)
        313          7         13  5.64311091E-04                    1_GWF-(1,26622)  1.12418369E-05                    1_GWF-(1,11133)
        314          7         14  7.46238710E-04                    1_GWF-(1,26649)  9.10222840E-06                    1_GWF-(1,11130)
        315          7         15 -7.64522135E-04                    1_GWF-(1,26649)  1.41231490E-05                    1_GWF-(1,11047)
        316          7         16  4.72629922E-04                    1_GWF-(1,26486)  1.32726378E-05                    1_GWF-(1,11150)
        317          7         17  4.49918044E-04                    1_GWF-(1,26350)  1.34888786E-05                    1_GWF-(1,11039)
        318          7         18  4.88669912E-04                    1_GWF-(1,26422)  1.18126667E-05                    1_GWF-(1,11047)
        319          7         19  4.01608602E-04                    1_GWF-(1,26350)  1.06348126E-05                    1_GWF-(1,11150)
        320          7         20  3.70705385E-04                    1_GWF-(1,26588)  9.54877115E-06                    1_GWF-(1,11039)
        321          7         21  3.43576765E-04                    1_GWF-(1,26586)  6.46166481E-06                    1_GWF-(1,11142)
        322          7         22  3.80949721E-04                    1_GWF-(1,26588)  6.25408341E-06                    1_GWF-(1,11150)
        323          7         23  4.01306285E-04                    1_GWF-(1,26486)  7.32599312E-06                    1_GWF-(1,11039)
        324          7         24 -3.42795169E-04                    1_GWF-(1,26486)  6.65611013E-06                    1_GWF-(1,11142)
        325          7         25 -2.49930961E-04                    1_GWF-(1,26544)  8.17097847E-06                    1_GWF-(1,11046)
        326          7         26 -2.53450265E-04                    1_GWF-(1,26486) -5.60054965E-06                    1_GWF-(1,11058)
        327          7         27 -2.46967907E-04                    1_GWF-(1,26487)  6.54931023E-06                    1_GWF-(1,11038)
        328          7         28 -2.73047847E-04                    1_GWF-(1,26588)  5.10092346E-06                    1_GWF-(1,11046)
        329          7         29 -2.82473577E-04                    1_GWF-(1,26487)  4.94007014E-06                    1_GWF-(1,11043)
        330          7         30 -2.78166765E-04                    1_GWF-(1,26420)  4.79053055E-06                    1_GWF-(1,11050)
        331          7         31 -1.71329908E-04                    1_GWF-(1,26487)  5.62837876E-06                    1_GWF-(1,11017)
        332          7         32 -1.59044551E-04                    1_GWF-(1,19913)  6.72563170E-06                    1_GWF-(1,11059)
        333          7         33  1.56477803E-04                     1_GWF-(1,8045)  7.26481988E-06                    1_GWF-(1,15109)
        334          7         34 -1.62747800E-04                    1_GWF-(1,20493) -6.58128063E-06                    1_GWF-(1,15109)
        335          7         35  1.96041073E-04                    1_GWF-(1,26217)  7.67433748E-06                    1_GWF-(1,11061)
        336          7         36  2.37583252E-04                    1_GWF-(1,26218)  6.46163476E-06                    1_GWF-(1,11058)
        337          7         37  1.94432627E-04                    1_GWF-(1,26217)  4.75396697E-06                    1_GWF-(1,11047)
        338          7         38  1.98073887E-04                    1_GWF-(1,26666)  5.26862530E-06                    1_GWF-(1,11061)
        339          7         39  2.52262730E-04                    1_GWF-(1,26665)  4.83023103E-06                    1_GWF-(1,11062)
        340          7         40 -2.22540941E-04                    1_GWF-(1,26665) -5.14022697E-06                    1_GWF-(1,11062)
        341          7         41  2.06531003E-04                    1_GWF-(1,26665) -4.89727696E-06                    1_GWF-(1,11053)
        342          7         42 -1.63454718E-04                    1_GWF-(1,26218) -5.71111603E-06                    1_GWF-(1,11054)
        343          7         43 -2.02456161E-04                    1_GWF-(1,26217) -6.01814630E-06                    1_GWF-(1,11062)
        344          7         44 -2.18393058E-04                    1_GWF-(1,26218) -5.73839355E-06                    1_GWF-(1,11057)
        345          7         45 -1.77764469E-04                    1_GWF-(1,26217) -4.64022352E-06                    1_GWF-(1,11065)
        346          7         46 -1.59076853E-04                    1_GWF-(1,26218) -4.83042568E-06                    1_GWF-(1,11064)
        347          7         47  1.99611010E-04                    1_GWF-(1,15068) -4.52544015E-06                    1_GWF-(1,11063)
        348          7         48  2.42974539E-04                    1_GWF-(1,15063)  6.03901325E-06                    1_GWF-(1,11150)
        349          7         49  3.75066468E-04                    1_GWF-(1,10745)  5.61715972E-06                    1_GWF-(1,15109)
        350          7         50  4.07483036E-04                    1_GWF-(1,11426)  9.73018948E-06                    1_GWF-(1,15108)
        351          8          1 -5.74585728E-04                    1_GWF-(1,11426)  6.96378131E-06                    1_GWF-(1,15109)
        352          8          2 -3.17123079E-04                    1_GWF-(1,10745)  6.11719496E-06                    1_GWF-(1,15108)
        353          8          3 -1.72651153E-04                    1_GWF-(1,15063)  6.22388258E-06                    1_GWF-(1,15109)
        354          8          4 -1.23802604E-04                    1_GWF-(1,15067) -4.51640798E-06                    1_GWF-(1,15109)
        355          8          5  1.17168246E-04                    1_GWF-(1,26487) -2.80209758E-06                    1_GWF-(1,15108)
        356          8          6  1.45788449E-04                    1_GWF-(1,26486)  2.08604527E-06                    1_GWF-(1,11149)
        357          8          7  1.43257176E-04                    1_GWF-(1,26487)  3.18247651E-06                    1_GWF-(1,15108)
        358          8          8  1.19098997E-04                    1_GWF-(1,26486)  3.83125136E-06                    1_GWF-(1,15109)
        359          8          9  9.84908799E-05                    1_GWF-(1,26217)  3.54014178E-06                    1_GWF-(1,15108)
        360          8         10  7.88153745E-05                    1_GWF-(1,26218) -2.43010842E-06                    1_GWF-(1,15108)
        361          8         11 -6.68606092E-05                    1_GWF-(1,26218)  2.24239065E-06                    1_GWF-(1,11055)
        362          8         12 -6.53122631E-05                    1_GWF-(1,26217)  1.77424249E-06                    1_GWF-(1,11063)
        363          8         13 -1.00886196E-04                    1_GWF-(1,26622)  1.73728224E-06                    1_GWF-(1,11059)
        364          8         14 -1.04341733E-04                    1_GWF-(1,26623)  1.65566468E-06                    1_GWF-(1,15108)
        365          8         15 -1.18080843E-04                    1_GWF-(1,26622)  1.46545253E-06                    1_GWF-(1,11052)
        366          8         16 -1.14258695E-04                    1_GWF-(1,26486)  2.12116867E-06                    1_GWF-(1,11059)
        367          8         17 -9.59715455E-05                    1_GWF-(1,26487)  1.46270539E-06                    1_GWF-(1,11137)
        368          8         18 -8.19599324E-05                    1_GWF-(1,26665)  1.74160413E-06                    1_GWF-(1,15109)
        369          8         19  8.72238075E-05                    1_GWF-(1,26665)  1.72740847E-06                    1_GWF-(1,11059)
        370          8         20 -9.05401058E-05                    1_GWF-(1,26665)  1.38646351E-06                    1_GWF-(1,11029)
        371          8         21 -6.01202605E-05                    1_GWF-(1,26666)  1.16392678E-06                    1_GWF-(1,11054)
        372          8         22  6.05576751E-05                    1_GWF-(1,26218) -1.59807856E-06                    1_GWF-(1,15109)
        373          8         23  5.70605719E-05                    1_GWF-(1,26217)  2.05991119E-06                    1_GWF-(1,15109)
        374          8         24  5.56257439E-05                    1_GWF-(1,26218) -2.21820891E-06                    1_GWF-(1,15109)
        375          8         25  4.02524470E-05                    1_GWF-(1,26589)  2.25332304E-06                    1_GWF-(1,15109)
        376          8         26  5.81949502E-05                    1_GWF-(1,26588)  1.81736614E-06                    1_GWF-(1,15108)
        377          8         27  5.66074513E-05                    1_GWF-(1,26543)  8.06629031E-07                    1_GWF-(1,11028)
        378          8         28  6.83769203E-05                    1_GWF-(1,26588) -8.65952080E-07                    1_GWF-(1,11064)
        379          8         29 -5.46481721E-05                    1_GWF-(1,26588)  1.47259594E-06                    1_GWF-(1,15108)
        380          8         30 -4.16597751E-05                    1_GWF-(1,26543)  1.88958934E-06                    1_GWF-(1,15109)
        381          8         31 -4.07463951E-05                    1_GWF-(1,19029) -2.16502018E-06                    1_GWF-(1,15109)
        382          8         32 -3.93207053E-05                    1_GWF-(1,18973) -2.25398000E-06                    1_GWF-(1,15108)
        383          8         33 -4.72821852E-05                    1_GWF-(1,19923) -1.79661947E-06                    1_GWF-(1,15109)
        384          8         34 -6.03721197E-05                    1_GWF-(1,19878)  1.70327012E-06                    1_GWF-(1,15109)
        385          8         35 -5.47408561E-05                    1_GWF-(1,26350) -1.22690588E-06                    1_GWF-(1,11100)
        386          8         36 -6.84966981E-05                    1_GWF-(1,26422)  8.89019371E-07                    1_GWF-(1,11141)
        387          8         37 -6.61618470E-05                    1_GWF-(1,26350)  1.26870455E-06                    1_GWF-(1,15109)
        388          8         38 -6.25385477E-05                    1_GWF-(1,26422) -1.69108815E-06                    1_GWF-(1,15109)
        389          8         39 -4.96473906E-05                    1_GWF-(1,26350)  1.36376775E-06                    1_GWF-(1,15109)
        390          8         40 -3.70920081E-05                    1_GWF-(1,26422) -1.07798987E-06                    1_GWF-(1,15109)
        391          8         41 -3.25632293E-05                    1_GWF-(1,20581) -9.84195861E-07                    1_GWF-(1,11150)
        392          8         42  2.86937674E-05                    1_GWF-(1,26350) -9.25802113E-07                    1_GWF-(1,11065)
        393          8         43  3.02902205E-05                    1_GWF-(1,26486) -8.09774020E-07                    1_GWF-(1,11106)
        394          8         44  3.81053270E-05                    1_GWF-(1,26623) -6.09038020E-07                    1_GWF-(1,11150)
        395          8         45  3.74330354E-05                    1_GWF-(1,26622) -6.22375327E-07                    1_GWF-(1,11065)
        396          8         46 -3.14922032E-05                     1_GWF-(1,8218) -6.58497432E-07                    1_GWF-(1,11106)
        397          8         47 -3.14515561E-05                     1_GWF-(1,8041)  6.64758647E-07                    1_GWF-(1,11044)
        398          8         48 -2.24499184E-05                     1_GWF-(1,8007)  5.40426565E-07                    1_GWF-(1,11061)
        399          8         49 -1.62703057E-05                     1_GWF-(1,8026)  4.41307195E-07                    1_GWF-(1,11065)
        400          8         50  1.26796039E-05                    1_GWF-(1,11459)  3.40564201E-07                    1_GWF-(1,11106)
        401          9          1  1.75747446E-05                    1_GWF-(1,26623)  4.77286105E-07                    1_GWF-(1,11054)
        402          9          2 -1.99929202E-05                    1_GWF-(1,26623)  2.25562830E-07                    1_GWF-(1,11053)
        403          9          3  2.03748078E-05                     1_GWF-(1,8046)  5.34251301E-07                    1_GWF-(1,11106)
        404          9          4 -3.11023489E-05                    1_GWF-(1,26486) -4.61593948E-07                    1_GWF-(1,11106)
        405          9          5 -3.53413502E-05                    1_GWF-(1,26487)  3.51049887E-07                    1_GWF-(1,11150)
        406          9          6 -2.78317924E-05                    1_GWF-(1,26486)  7.28797097E-07                    1_GWF-(1,11106)
        407          9          7 -1.85607211E-05                    1_GWF-(1,26487) -5.02596594E-07                    1_GWF-(1,11106)
        408          9          8 -1.61356846E-05                    1_GWF-(1,26486)  3.45770831E-07                    1_GWF-(1,11036)
        409          9          9 -1.63741184E-05                    1_GWF-(1,26623) -5.88886923E-07                    1_GWF-(1,11150)
        410          9         10  1.96979443E-05                    1_GWF-(1,26623)  3.71578647E-07                    1_GWF-(1,11062)
        411          9         11  2.93525831E-05                    1_GWF-(1,26622) -3.27732955E-07                    1_GWF-(1,11048)
        412          9         12  3.06006306E-05                    1_GWF-(1,26649) -4.13954019E-07                    1_GWF-(1,11150)
        413          9         13  1.89978652E-05                    1_GWF-(1,26622)  3.11043768E-07                    1_GWF-(1,11136)
        414          9         14  1.43320190E-05                    1_GWF-(1,26588)  4.57392210E-07                    1_GWF-(1,11100)
        415          9         15  1.49099134E-05                    1_GWF-(1,21360)  4.96397681E-07                    1_GWF-(1,11106)
        416          9         16  1.55172437E-05                    1_GWF-(1,26588)  3.52385331E-07                    1_GWF-(1,11136)
        417          9         17  1.44908843E-05                    1_GWF-(1,19878)  3.97943531E-07                    1_GWF-(1,11052)
        418          9         18  1.98021639E-05                    1_GWF-(1,26588)  3.09671203E-07                    1_GWF-(1,11056)
        419          9         19  1.48201970E-05                    1_GWF-(1,26543)  2.24509064E-07                    1_GWF-(1,11047)
        420          9         20  1.67894563E-05                    1_GWF-(1,26588)  2.73974662E-07                    1_GWF-(1,11100)
        421          9         21  1.25552866E-05                    1_GWF-(1,26543)  2.45703665E-07                    1_GWF-(1,11106)
        422          9         22  1.04637533E-05                    1_GWF-(1,26350) -2.06174304E-07                    1_GWF-(1,10967)
        423          9         23  1.10504217E-05                    1_GWF-(1,26422)  2.53342316E-07                    1_GWF-(1,11052)
        424          9         24 -9.79209859E-06                    1_GWF-(1,26422)  2.15984304E-07                    1_GWF-(1,11106)
        425          9         25 -9.95047774E-06                    1_GWF-(1,26663) -2.17362074E-07                    1_GWF-(1,10967)
        426          9         26 -1.13536867E-05                    1_GWF-(1,26665)  2.11474070E-07                    1_GWF-(1,11060)
        427          9         27 -9.91523701E-06                    1_GWF-(1,26666)  2.06760746E-07                    1_GWF-(1,11039)
        428          9         28 -1.06901926E-05                    1_GWF-(1,26665) -1.69046381E-07                    1_GWF-(1,11134)
        429          9         29 -9.91302088E-06                    1_GWF-(1,26422)  1.93628484E-07                    1_GWF-(1,11150)
        430          9         30 -8.00249845E-06                    1_GWF-(1,26350)  1.82384002E-07                    1_GWF-(1,11134)
        431          9         31 -6.07874929E-06                    1_GWF-(1,26422)  1.84764981E-07                    1_GWF-(1,11050)
        432          9         32  5.35594138E-06                     1_GWF-(1,8331)  1.97423314E-07                    1_GWF-(1,11046)
        433          9         33  5.90087696E-06                     1_GWF-(1,8044) -1.78075839E-07                    1_GWF-(1,11150)
        434          9         34  6.69641713E-06                    1_GWF-(1,26486)  2.09905583E-07                    1_GWF-(1,10961)
        435          9         35  6.73222774E-06                    1_GWF-(1,21181)  2.25356022E-07                    1_GWF-(1,11017)
        436          9         36  7.59449228E-06                    1_GWF-(1,26218)  1.82923469E-07                    1_GWF-(1,11106)
        437          9         37 -6.07947244E-06                    1_GWF-(1,20572)  1.85669203E-07                    1_GWF-(1,11058)
        438          9         38  7.43576566E-06                    1_GWF-(1,26486) -2.19125161E-07                    1_GWF-(1,11058)
        439          9         39  8.54157741E-06                    1_GWF-(1,26487)  1.44655798E-07                    1_GWF-(1,11106)
        440          9         40 -9.74010441E-06                    1_GWF-(1,26487)  1.75366570E-07                    1_GWF-(1,11058)
        441          9         41 -9.00615377E-06                    1_GWF-(1,26486)  1.87695866E-07                    1_GWF-(1,11053)
        442          9         42 -7.71889933E-06                    1_GWF-(1,26487)  2.15560149E-07                    1_GWF-(1,11106)
        443          9         43 -8.56146515E-06                    1_GWF-(1,26217)  1.63531375E-07                    1_GWF-(1,11058)
        444          9         44 -9.63452907E-06                    1_GWF-(1,26218) -2.02826637E-07                    1_GWF-(1,11147)
        445          9         45 -7.23181691E-06                    1_GWF-(1,26217) -2.24735600E-07                    1_GWF-(1,11053)
        446          9         46 -8.33671670E-06                    1_GWF-(1,26649) -1.60773572E-07                    1_GWF-(1,11054)
        447          9         47 -1.01477595E-05                    1_GWF-(1,26622) -1.85609697E-07                    1_GWF-(1,11147)
        448          9         48 -8.83242779E-06                    1_GWF-(1,26649)  1.76261483E-07                    1_GWF-(1,11154)
        449          9         49  7.38178455E-06                    1_GWF-(1,15063) -2.08132423E-07                    1_GWF-(1,11054)
        450          9         50  1.13058189E-05                    1_GWF-(1,11426)  1.86016306E-07                    1_GWF-(1,11054)
        451         10          1 -9.30174310E-06                    1_GWF-(1,10745)  2.00903134E-07                    1_GWF-(1,11062)
        452         10          2 -9.71783950E-06                    1_GWF-(1,11426) -7.60966178E-08                    1_GWF-(1,11053)
        453         10          3  5.37618789E-06                    1_GWF-(1,26623) -1.69818843E-07                    1_GWF-(1,11051)
        454         10          4  6.92340265E-06                    1_GWF-(1,26622) -1.40735591E-07                    1_GWF-(1,11150)
        455         10          5  5.68272069E-06                    1_GWF-(1,26623) -9.86656829E-08                    1_GWF-(1,11053)
        456         10          6  4.37374792E-06                    1_GWF-(1,26217)  1.70837973E-07                    1_GWF-(1,11150)
        457         10          7  5.09754402E-06                    1_GWF-(1,26218)  1.47931790E-07                    1_GWF-(1,11062)
        458         10          8  3.98374826E-06                    1_GWF-(1,26217) -1.03775000E-07                    1_GWF-(1,11053)
        459         10          9  4.02947738E-06                    1_GWF-(1,26487)  1.02794445E-07                    1_GWF-(1,11053)
        460         10         10  4.14779992E-06                    1_GWF-(1,26420)  6.84640400E-08                    1_GWF-(1,11062)
        461         10         11  4.03385926E-06                    1_GWF-(1,26487) -9.48559147E-08                    1_GWF-(1,11053)
        462         10         12 -3.99900174E-06                    1_GWF-(1,26487)  9.89722179E-08                    1_GWF-(1,11146)
        463         10         13 -3.96454412E-06                    1_GWF-(1,26486)  6.80023371E-08                    1_GWF-(1,11058)
        464         10         14 -3.75576933E-06                    1_GWF-(1,26487)  8.55275903E-08                    1_GWF-(1,11050)
        465         10         15 -4.12506418E-06                    1_GWF-(1,26543)  8.68582390E-08                    1_GWF-(1,11053)
        466         10         16 -4.73259271E-06                    1_GWF-(1,26588)  8.18067058E-08                    1_GWF-(1,11029)
        467         10         17 -3.88178046E-06                    1_GWF-(1,26543)  7.64304142E-08                    1_GWF-(1,11106)
        468         10         18 -3.05315767E-06                    1_GWF-(1,26588)  7.17087628E-08                    1_GWF-(1,11041)
        469         10         19 -2.23836781E-06                    1_GWF-(1,26543)  7.18788247E-08                    1_GWF-(1,11058)
        470         10         20 -2.29263346E-06                    1_GWF-(1,26588)  7.05718591E-08                    1_GWF-(1,11064)
        471         10         21  2.32826837E-06                    1_GWF-(1,26588)  4.66287912E-08                    1_GWF-(1,11059)
        472         10         22  2.61272687E-06                    1_GWF-(1,26543)  6.75561967E-08                    1_GWF-(1,11058)
        473         10         23  2.29262440E-06                    1_GWF-(1,26665)  7.52261517E-08                    1_GWF-(1,11064)
        474         10         24  1.80024267E-06                    1_GWF-(1,21289) -5.39541271E-08                    1_GWF-(1,11062)
        475         10         25  1.59955920E-06                    1_GWF-(1,26665) -6.18863340E-08                    1_GWF-(1,11059)
        476         10         26  1.44375198E-06                     1_GWF-(1,8420)  7.49177068E-08                    1_GWF-(1,11059)
        477         10         27  1.31218420E-06                     1_GWF-(1,8435) -4.49657258E-08                    1_GWF-(1,11047)
        478         10         28  1.10001340E-06                    1_GWF-(1,26149) -5.46247754E-08                    1_GWF-(1,11063)
        479         10         29 -1.27049905E-06                    1_GWF-(1,19020) -5.93425280E-08                    1_GWF-(1,11100)
        480         10         30 -1.61468063E-06                    1_GWF-(1,26420)  5.17306633E-08                    1_GWF-(1,11100)
        481         10         31 -2.18755014E-06                    1_GWF-(1,26588) -3.72201632E-08                    1_GWF-(1,11056)
        482         10         32 -2.23311224E-06                    1_GWF-(1,26486) -5.63492673E-08                    1_GWF-(1,11100)
        483         10         33  1.95075946E-06                    1_GWF-(1,26486)  4.09816042E-08                    1_GWF-(1,11056)
        484         10         34 -2.19446940E-06                    1_GWF-(1,19878) -5.21541219E-08                    1_GWF-(1,11046)
        485         10         35 -1.71078062E-06                    1_GWF-(1,26544) -5.35303017E-08                    1_GWF-(1,11100)
        486         10         36 -1.75247968E-06                    1_GWF-(1,26486) -4.07175796E-08                    1_GWF-(1,11061)
        487         10         37 -1.95278573E-06                    1_GWF-(1,26649)  3.38638650E-08                    1_GWF-(1,11099)
        488         10         38  1.99394761E-06                    1_GWF-(1,26649)  3.87294145E-08                    1_GWF-(1,11101)
        489         10         39 -2.20949587E-06                    1_GWF-(1,26649)  3.35608917E-08                    1_GWF-(1,11026)
        490         10         40 -2.01915389E-06                    1_GWF-(1,26622) -2.62832528E-08                    1_GWF-(1,11027)
        491         10         41  1.65839285E-06                    1_GWF-(1,26622)  4.09036302E-08                    1_GWF-(1,11101)
        492         10         42  1.69566313E-06                    1_GWF-(1,26486)  3.61008572E-08                    1_GWF-(1,11026)
        493         10         43 -1.29329300E-06                    1_GWF-(1,26486)  2.93069373E-08                    1_GWF-(1,11017)
        494         10         44  1.49037471E-06                    1_GWF-(1,26486)  3.35941853E-08                    1_GWF-(1,11038)
        495         10         45  1.37451986E-06                    1_GWF-(1,26487)  2.66163975E-08                    1_GWF-(1,11059)
        496         10         46  1.61249633E-06                    1_GWF-(1,26588)  2.01395360E-08                    1_GWF-(1,11100)
        497         10         47 -1.44441262E-06                    1_GWF-(1,26588)  2.61385730E-08                    1_GWF-(1,11038)
        498         10         48  1.27858954E-06                    1_GWF-(1,26420) -1.99681597E-08                    1_GWF-(1,10871)
        499         10         49 -8.56809149E-07                    1_GWF-(1,26350)  2.38942723E-08                    1_GWF-(1,11065)
        500         11          1 -7.11252097E-07                    1_GWF-(1,26422)  1.41810334E-08                    1_GWF-(1,11028)
 --------------------------------------------------------------------------------------------------------------------------------------



 MEMORY MANAGER TOTAL STORAGE BY DATA TYPE, IN MEGABYTES
 -------------------------------
                    ALLOCATED   
 DATA TYPE           MEMORY     
 -------------------------------
 Character        4.66090000E-02
 Logical          4.40000000E-05
 Integer          5.2037920     
 Real             11.901376     
 -------------------------------
 Total            17.151821     
 -------------------------------


 
 Run end date and time (yyyy/mm/dd hh:mm:ss): 2022/04/22  8:06:07
 Elapsed run time:  0.574 Seconds
 Normal termination of simulation.
