                                   MODFLOW 6
                U.S. GEOLOGICAL SURVEY MODULAR HYDROLOGIC MODEL
                            VERSION 6.2.2 07/30/2021

   MODFLOW 6 compiled Jul 31 2021 14:22:53 with IFORT compiler (ver. 19.10.3)

This software has been approved for release by the U.S. Geological 
Survey (USGS). Although the software has been subjected to rigorous 
review, the USGS reserves the right to update the software as needed 
pursuant to further analysis and review. No warranty, expressed or 
implied, is made by the USGS or the U.S. Government as to the 
functionality of the software and related material nor shall the 
fact of release constitute any such warranty. Furthermore, the 
software is released on condition that neither the USGS nor the U.S. 
Government shall be held liable for any damages resulting from its 
authorized or unauthorized use. Also refer to the USGS Water 
Resources Software User Rights Notice for complete use, copyright, 
and distribution information.


System command used to initiate simulation:
mf6

MODFLOW was compiled using uniform precision.

Real Variables
  KIND: 8
  TINY (smallest non-zero value):    2.225074-308
  HUGE (largest value):    1.797693+308
  PRECISION: 15
  BIT SIZE: 64

Integer Variables
  KIND: 4
  HUGE (largest value): 2147483647
  BIT SIZE: 32

Long Integer Variables
  KIND: 8
  HUGE (largest value): 9223372036854775807
  BIT SIZE: 64

Logical Variables
  KIND: 4
  BIT SIZE: 32
 

 OPENED mfsim.nam
 FILE TYPE:NAM   UNIT 1001   STATUS:OLD                 
 FORMAT:FORMATTED              ACCESS:SEQUENTIAL          
 ACTION:READ                

 # File generated by Flopy version 3.3.5 on 04/28/2022 at 15:58:37.

 READING SIMULATION OPTIONS
 END OF SIMULATION OPTIONS

 READING SIMULATION TIMING

 OPENED mfsim.tdis
 FILE TYPE:TDIS   UNIT 1002   STATUS:OLD                 
 FORMAT:FORMATTED              ACCESS:SEQUENTIAL          
 ACTION:READ                


 TDIS -- TEMPORAL DISCRETIZATION PACKAGE,
 VERSION 1 : 11/13/2014 - INPUT READ FROM UNIT 1002
 # File generated by Flopy version 3.3.5 on 04/28/2022 at 15:58:37.
 PROCESSING TDIS OPTIONS
    SIMULATION TIME UNIT IS SECONDS
 END OF TDIS OPTIONS
 PROCESSING TDIS DIMENSIONS
    1 STRESS PERIOD(S) IN SIMULATION
 END OF TDIS DIMENSIONS
 PROCESSING TDIS PERIODDATA


 STRESS PERIOD     LENGTH       TIME STEPS     MULTIPLIER FOR DELT
 ----------------------------------------------------------------------------
        1         2.000000          1                    1.000
 END OF TDIS PERIODDATA
 END OF SIMULATION TIMING

 READING SIMULATION MODELS
    GWF6 model ML will be created as model 1
 END OF SIMULATION MODELS

 READING SIMULATION EXCHANGES
 END OF SIMULATION EXCHANGES

 READING SOLUTIONGROUP

 Creating solution: SLN_1           

 OPENED mfsim.ims
 FILE TYPE:IMS   UNIT 1015   STATUS:OLD                 
 FORMAT:FORMATTED              ACCESS:SEQUENTIAL          
 ACTION:READ                

 END OF SIMULATION SOLUTIONGROUP

 IMS -- ITERATIVE MODEL SOLUTION PACKAGE, VERSION 6, 4/28/2017
         INPUT READ FROM UNIT 1015
 # File generated by Flopy version 3.3.5 on 04/28/2022 at 15:58:37.

 PROCESSING IMS OPTIONS
 END OF IMS OPTIONS

 PROCESSING IMS NONLINEAR
 END OF IMS NONLINEAR DATA
 ***UNDER-RELAXATION WILL NOT BE USED***
 
 ***IMS LINEAR SOLVER WILL BE USED***

 IMSLINEAR -- UNSTRUCTURED LINEAR SOLUTION PACKAGE, VERSION 8, 04/28/2017

 PROCESSING LINEAR DATA
 END OF LINEAR DATA
 
 OUTER ITERATION CONVERGENCE CRITERION    (DVCLOSE) =    0.100000E-04
 MAXIMUM NUMBER OF OUTER ITERATIONS        (MXITER) = 100
 SOLVER PRINTOUT INDEX                     (IPRIMS) = 2
 NONLINEAR ITERATION METHOD            (NONLINMETH) = 0
 LINEAR SOLUTION METHOD                   (LINMETH) = 1

       SOLUTION BY THE        CONJUGATE-GRADIENT       METHOD
 ------------------------------------------------------------------
 MAXIMUM OF 100 CALLS OF SOLUTION ROUTINE
 MAXIMUM OF 50 INTERNAL ITERATIONS PER CALL TO SOLUTION ROUTINE
 LINEAR ACCELERATION METHOD            = CG        
 MATRIX PRECONDITIONING TYPE           = INCOMPLETE LU       
 MATRIX SCALING APPROACH               = NO SCALING          
 MATRIX REORDERING APPROACH            = ORIGINAL ORDERING        
 NUMBER OF ORTHOGONALIZATIONS          = 0
 HEAD CHANGE CRITERION FOR CLOSURE     =    0.10000E-05
 RESIDUAL CHANGE CRITERION FOR CLOSURE =    0.10000E-04
 RESIDUAL CONVERGENCE OPTION           = 1
 RESIDUAL CONVERGENCE NORM             = INFINITY NORM S 
 RELAXATION FACTOR                     =    0.00000E+00



 
    Solving:  Stress period:     1    Time step:     1
 
1
                            STRESS PERIOD NO. 1, LENGTH =   2.000000    
                            -----------------------------------------------
                            NUMBER OF TIME STEPS = 1
                            MULTIPLIER FOR DELT =     1.000
                            INITIAL TIME STEP SIZE =   2.000000    

 SLN_1 OUTER ITERATION SUMMARY
 ----------------------------------------------------------------------------------------------------------
                                OUTER      INNER                    STEP   MAXIMUM CHANGE MODEL-(CELLID) OR
 OUTER ITERATION STEP       ITERATION  ITERATION  MAXIMUM CHANGE SUCCESS             MODEL-PACKAGE-(NUMBER)
 ----------------------------------------------------------------------------------------------------------
 Model                              1         50       41.128569                            1_GWF-(1,26519)
 Model                              2         50      -36.218411                            1_GWF-(1,26519)
 Model                              3         50      0.28004812                            1_GWF-(1,24078)
 Model                              4         50 -6.46285910E-02                            1_GWF-(1,21415)
 Model                              5         50 -1.12736089E-02                            1_GWF-(1,11378)
 Model                              6         50 -8.33247180E-04                            1_GWF-(1,21454)
 Model                              7         47  3.30311417E-05                            1_GWF-(1,21353)
 Model                              8          1 -6.13591540E-07       *                    1_GWF-(1,26486)
 ----------------------------------------------------------------------------------------------------------


 8 CALLS TO NUMERICAL SOLUTION IN TIME STEP 1 STRESS PERIOD 1
 348 TOTAL ITERATIONS

 SLN_1 INNER ITERATION SUMMARY
 --------------------------------------------------------------------------------------------------------------------------------------
      TOTAL      OUTER      INNER                                                            MAXIMUM                                   
  ITERATION  ITERATION  ITERATION  MAXIMUM CHANGE      MAXIMUM CHANGE MODEL-(CELLID)        RESIDUAL    MAXIMUM RESIDUAL MODEL-(CELLID)
 --------------------------------------------------------------------------------------------------------------------------------------
          1          1          1      -11.826561                    1_GWF-(1,12785)      0.66549721                    1_GWF-(1,11179)
          2          1          2       7.9512768                    1_GWF-(1,26564)     -0.36572529                    1_GWF-(1,11175)
          3          1          3       8.5871278                    1_GWF-(1,26565)     -0.32955565                    1_GWF-(1,11178)
          4          1          4       8.3280129                    1_GWF-(1,26564)      0.32157253                    1_GWF-(1,11180)
          5          1          5       8.5395622                    1_GWF-(1,26611)      0.29369958                    1_GWF-(1,11157)
          6          1          6       9.1841104                    1_GWF-(1,26649)      0.22705967                    1_GWF-(1,11158)
          7          1          7       9.2571167                    1_GWF-(1,26622)     -0.25692582                    1_GWF-(1,11208)
          8          1          8       7.4122201                    1_GWF-(1,26665)      0.14898813                    1_GWF-(1,10961)
          9          1          9      -5.6811169                    1_GWF-(1,26665)      0.15049555                    1_GWF-(1,11158)
         10          1         10      -5.6671373                    1_GWF-(1,26666)      0.15596024                    1_GWF-(1,11207)
         11          1         11      -5.3366778                    1_GWF-(1,26665)     -0.14593600                    1_GWF-(1,11207)
         12          1         12      -5.1023493                    1_GWF-(1,26622)      0.10910690                    1_GWF-(1,11059)
         13          1         13      -6.0057262                    1_GWF-(1,26649)  9.18172639E-02                    1_GWF-(1,11052)
         14          1         14      -4.8886052                    1_GWF-(1,26622)  8.46253850E-02                    1_GWF-(1,11050)
         15          1         15      -3.9029952                    1_GWF-(1,26623)  8.26078403E-02                    1_GWF-(1,11017)
         16          1         16      -3.0425197                    1_GWF-(1,26622)  8.16269633E-02                    1_GWF-(1,11058)
         17          1         17      -3.5506536                    1_GWF-(1,26588)      0.10972258                    1_GWF-(1,10873)
         18          1         18      -4.6494528                    1_GWF-(1,26543)     -0.10147560                    1_GWF-(1,11152)
         19          1         19      -6.1694950                    1_GWF-(1,26588)  8.54588444E-02                    1_GWF-(1,11194)
         20          1         20      -4.9982411                    1_GWF-(1,26543)  8.82698772E-02                    1_GWF-(1,11151)
         21          1         21      -3.5735572                    1_GWF-(1,26544) -8.22283345E-02                    1_GWF-(1,11152)
         22          1         22      -3.8901425                    1_GWF-(1,26486) -8.94825775E-02                    1_GWF-(1,11151)
         23          1         23      -3.7636908                    1_GWF-(1,26487)  7.64565915E-02                    1_GWF-(1,11151)
         24          1         24       3.5132160                    1_GWF-(1,26487)  6.63971644E-02                    1_GWF-(1,11108)
         25          1         25       4.6298152                    1_GWF-(1,26420) -6.71019683E-02                    1_GWF-(1,11151)
         26          1         26       4.8556625                    1_GWF-(1,26487) -7.95571337E-02                    1_GWF-(1,11108)
         27          1         27       4.0626437                    1_GWF-(1,26420)  6.60631549E-02                    1_GWF-(1,11108)
         28          1         28       2.9382926                    1_GWF-(1,26487) -5.92123504E-02                    1_GWF-(1,11149)
         29          1         29       2.2297808                    1_GWF-(1,26542) -5.72857536E-02                    1_GWF-(1,11150)
         30          1         30       1.8664078                    1_GWF-(1,26623) -5.91716694E-02                    1_GWF-(1,11063)
         31          1         31       2.0056842                    1_GWF-(1,26586)  5.05694785E-02                    1_GWF-(1,11158)
         32          1         32       1.7456549                    1_GWF-(1,26422) -4.84421241E-02                    1_GWF-(1,11053)
         33          1         33      -1.9983393                    1_GWF-(1,26422) -5.17856017E-02                    1_GWF-(1,11155)
         34          1         34      -2.0437907                    1_GWF-(1,26350) -4.56866122E-02                    1_GWF-(1,11154)
         35          1         35      -2.0903115                    1_GWF-(1,26422)  4.91043968E-02                    1_GWF-(1,11154)
         36          1         36      -1.9118662                    1_GWF-(1,26350) -4.98293740E-02                    1_GWF-(1,11153)
         37          1         37      -1.7310504                    1_GWF-(1,26422)  4.89470313E-02                    1_GWF-(1,11064)
         38          1         38      -1.5808209                    1_GWF-(1,26648)  5.67202866E-02                    1_GWF-(1,11063)
         39          1         39      -1.5197899                    1_GWF-(1,26649)  4.35027923E-02                    1_GWF-(1,11150)
         40          1         40      -1.4931258                    1_GWF-(1,26623)  3.31570156E-02                    1_GWF-(1,11110)
         41          1         41      -1.3070132                    1_GWF-(1,26649)  3.43689476E-02                    1_GWF-(1,11152)
         42          1         42      -1.1623654                    1_GWF-(1,26623)  3.88070680E-02                    1_GWF-(1,11150)
         43          1         43     -0.99426072                    1_GWF-(1,21484) -4.00231984E-02                    1_GWF-(1,11151)
         44          1         44     -0.99577234                    1_GWF-(1,21412) -4.20850937E-02                    1_GWF-(1,11108)
         45          1         45      -1.2634759                    1_GWF-(1,21259) -3.01618945E-02                    1_GWF-(1,11061)
         46          1         46      -1.1659002                    1_GWF-(1,20925)  3.36002359E-02                    1_GWF-(1,14801)
         47          1         47      -1.2257142                    1_GWF-(1,20919) -4.42885907E-02                    1_GWF-(1,14801)
         48          1         48     -0.91297473                    1_GWF-(1,20918)  5.55900309E-02                    1_GWF-(1,14801)
         49          1         49     -0.68337452                    1_GWF-(1,26217) -5.99924997E-02                    1_GWF-(1,14801)
         50          1         50     -0.62330296                    1_GWF-(1,26218)  7.90298377E-02                    1_GWF-(1,14801)
         51          2          1      -37.246958                    1_GWF-(1,26519)     -0.16581557                    1_GWF-(1,26519)
         52          2          2      -13.902122                    1_GWF-(1,26607) -6.38220643E-02                    1_GWF-(1,26516)
         53          2          3      -7.1932348                    1_GWF-(1,26637)  4.29675017E-02                    1_GWF-(1,26516)
         54          2          4      -7.0825936                    1_GWF-(1,26665)  4.96068619E-02                    1_GWF-(1,14801)
         55          2          5      -4.6122159                    1_GWF-(1,26649) -4.81438704E-02                    1_GWF-(1,14801)
         56          2          6      -3.5212192                    1_GWF-(1,26589)  6.44950623E-02                    1_GWF-(1,14801)
         57          2          7      -3.0042082                    1_GWF-(1,26543) -7.24135129E-02                    1_GWF-(1,14801)
         58          2          8      -2.6400526                    1_GWF-(1,26544)      0.11209781                    1_GWF-(1,14801)
         59          2          9      -1.9210356                    1_GWF-(1,26487) -9.63980675E-02                    1_GWF-(1,14801)
         60          2         10      -1.5923348                    1_GWF-(1,26421)  8.80848628E-02                    1_GWF-(1,14801)
         61          2         11      -1.4852770                    1_GWF-(1,26422)  1.56183110E-02                    1_GWF-(1,14800)
         62          2         12      -1.1824971                    1_GWF-(1,26217)  3.33074344E-02                    1_GWF-(1,14800)
         63          2         13     -0.90704383                    1_GWF-(1,26218)  6.49188818E-02                    1_GWF-(1,14801)
         64          2         14     -0.57655801                    1_GWF-(1,26649) -6.50422919E-02                    1_GWF-(1,14801)
         65          2         15     -0.62724374                    1_GWF-(1,26622)  5.97123522E-02                    1_GWF-(1,14801)
         66          2         16     -0.81674750                    1_GWF-(1,25775)  1.57072210E-02                    1_GWF-(1,14801)
         67          2         17      0.88651860                    1_GWF-(1,26350)  6.35981011E-02                    1_GWF-(1,14800)
         68          2         18      0.88589196                    1_GWF-(1,26217)  8.93052687E-02                    1_GWF-(1,14801)
         69          2         19      0.65795478                    1_GWF-(1,26218)  6.62572389E-02                    1_GWF-(1,14800)
         70          2         20      0.47260153                    1_GWF-(1,26543)  5.13646095E-02                    1_GWF-(1,14801)
         71          2         21      0.70448231                    1_GWF-(1,26588)  1.00866068E-02                    1_GWF-(1,14801)
         72          2         22      0.74599181                    1_GWF-(1,26543)  4.63949828E-02                    1_GWF-(1,14800)
         73          2         23      0.44978422                    1_GWF-(1,26544)  8.19357741E-02                    1_GWF-(1,14801)
         74          2         24     -0.50324313                    1_GWF-(1,26422)  7.27982601E-02                    1_GWF-(1,14800)
         75          2         25     -0.69792256                    1_GWF-(1,26486)  6.19856955E-02                    1_GWF-(1,14801)
         76          2         26     -0.75244099                    1_GWF-(1,26487)  1.14908812E-02                    1_GWF-(1,14800)
         77          2         27     -0.50252245                    1_GWF-(1,26420)  3.86492668E-02                    1_GWF-(1,14800)
         78          2         28     -0.26991878                    1_GWF-(1,26543)  6.81864669E-02                    1_GWF-(1,14801)
         79          2         29      0.28286375                    1_GWF-(1,26487)  6.65589220E-02                    1_GWF-(1,14800)
         80          2         30      0.28454557                    1_GWF-(1,26420)  8.83690998E-02                    1_GWF-(1,14801)
         81          2         31      0.23325544                    1_GWF-(1,25268) -7.99890737E-02                    1_GWF-(1,14801)
         82          2         32      0.26119859                    1_GWF-(1,26218)  8.78077457E-02                    1_GWF-(1,14801)
         83          2         33      0.27548234                    1_GWF-(1,26217)  6.00867731E-02                    1_GWF-(1,14800)
         84          2         34     -0.20924118                    1_GWF-(1,26217)  4.77660371E-02                    1_GWF-(1,14801)
         85          2         35      0.18722647                    1_GWF-(1,26422)  3.01420701E-02                    1_GWF-(1,14800)
         86          2         36      0.18572066                    1_GWF-(1,26218)  2.53365248E-02                    1_GWF-(1,14801)
         87          2         37     -0.20392903                    1_GWF-(1,21290)  1.62127917E-02                    1_GWF-(1,14800)
         88          2         38     -0.20660903                    1_GWF-(1,21282)  1.36248011E-02                    1_GWF-(1,14801)
         89          2         39     -0.19264499                    1_GWF-(1,20937)  7.55547188E-03                    1_GWF-(1,14800)
         90          2         40     -0.18908454                    1_GWF-(1,20915)  5.13000112E-03                    1_GWF-(1,14801)
         91          2         41     -0.15113978                    1_GWF-(1,20908)  7.25730514E-03                    1_GWF-(1,14801)
         92          2         42      0.16001700                    1_GWF-(1,21364)  9.28045750E-03                    1_GWF-(1,14800)
         93          2         43     -0.19416529                    1_GWF-(1,26350)  1.26066879E-02                    1_GWF-(1,14801)
         94          2         44      0.20941904                    1_GWF-(1,21283)  1.21360875E-02                    1_GWF-(1,14800)
         95          2         45      0.20011121                    1_GWF-(1,21265)  1.48098713E-02                    1_GWF-(1,14801)
         96          2         46      0.17859927                    1_GWF-(1,20917)  1.14264980E-02                    1_GWF-(1,14800)
         97          2         47      0.13621404                    1_GWF-(1,20232)  1.04728002E-02                    1_GWF-(1,14801)
         98          2         48 -9.51227816E-02                    1_GWF-(1,26422)  6.89025297E-03                    1_GWF-(1,14800)
         99          2         49 -8.89924442E-02                    1_GWF-(1,26586)  6.59405458E-03                    1_GWF-(1,14801)
        100          2         50 -7.52448329E-02                    1_GWF-(1,20584)  4.98420825E-03                    1_GWF-(1,15939)
        101          3          1     -0.13483264                    1_GWF-(1,11442) -5.37282680E-03                    1_GWF-(1,11378)
        102          3          2     -0.13203743                    1_GWF-(1,11437)  5.42254118E-03                    1_GWF-(1,14800)
        103          3          3  6.85027695E-02                    1_GWF-(1,26623)  6.97923030E-03                    1_GWF-(1,14801)
        104          3          4  6.31089858E-02                    1_GWF-(1,26649)  5.78422096E-03                    1_GWF-(1,14800)
        105          3          5 -7.69567012E-02                    1_GWF-(1,21260)  7.27306746E-03                    1_GWF-(1,14801)
        106          3          6 -6.33104121E-02                    1_GWF-(1,26422)  6.63795803E-03                    1_GWF-(1,14800)
        107          3          7 -6.29407963E-02                    1_GWF-(1,26350)  6.66024071E-03                    1_GWF-(1,14801)
        108          3          8 -7.32929600E-02                    1_GWF-(1,26422)  5.07007668E-03                    1_GWF-(1,14800)
        109          3          9 -7.55127711E-02                    1_GWF-(1,26350)  5.91285639E-03                    1_GWF-(1,14801)
        110          3         10  6.88447986E-02                    1_GWF-(1,20224)  4.14469748E-03                    1_GWF-(1,14800)
        111          3         11  6.38119454E-02                    1_GWF-(1,26422)  3.35762426E-03                    1_GWF-(1,15939)
        112          3         12 -5.06127493E-02                    1_GWF-(1,26422) -2.66718091E-03                    1_GWF-(1,15939)
        113          3         13  4.77082136E-02                    1_GWF-(1,21332) -1.70384704E-03                    1_GWF-(1,11378)
        114          3         14  4.52574777E-02                    1_GWF-(1,21329) -1.69927259E-03                    1_GWF-(1,14800)
        115          3         15  3.41796827E-02                    1_GWF-(1,20989) -2.89826750E-03                    1_GWF-(1,14801)
        116          3         16 -4.51842337E-02                    1_GWF-(1,26665)  3.61776854E-03                    1_GWF-(1,14801)
        117          3         17 -4.28138096E-02                    1_GWF-(1,26672) -4.50811196E-03                    1_GWF-(1,14801)
        118          3         18 -3.58868912E-02                    1_GWF-(1,26673)  6.60632415E-03                    1_GWF-(1,14801)
        119          3         19  2.94429041E-02                    1_GWF-(1,26673)  7.37190541E-03                    1_GWF-(1,14800)
        120          3         20  4.14434852E-02                    1_GWF-(1,26672)  1.04110180E-02                    1_GWF-(1,14801)
        121          3         21 -3.68361009E-02                    1_GWF-(1,20890) -1.01709248E-02                    1_GWF-(1,14801)
        122          3         22 -3.11710387E-02                    1_GWF-(1,20227)  1.24258613E-02                    1_GWF-(1,14801)
        123          3         23 -3.29040028E-02                    1_GWF-(1,20222) -1.22674477E-02                    1_GWF-(1,14801)
        124          3         24  4.65821273E-02                    1_GWF-(1,26588)  1.12345984E-02                    1_GWF-(1,14801)
        125          3         25  5.64093533E-02                    1_GWF-(1,26487)  3.51651528E-03                    1_GWF-(1,14800)
        126          3         26  5.72250659E-02                    1_GWF-(1,26420)  3.74617904E-03                    1_GWF-(1,14800)
        127          3         27  4.69329588E-02                    1_GWF-(1,26487)  9.28869567E-03                    1_GWF-(1,14801)
        128          3         28  3.05843350E-02                    1_GWF-(1,25268) -1.08868229E-02                    1_GWF-(1,14801)
        129          3         29 -3.50225233E-02                    1_GWF-(1,26486)  9.17471603E-03                    1_GWF-(1,14801)
        130          3         30 -3.58897974E-02                    1_GWF-(1,26622)  3.49269466E-03                    1_GWF-(1,14800)
        131          3         31 -4.23504081E-02                    1_GWF-(1,26649)  2.66610410E-03                    1_GWF-(1,14800)
        132          3         32 -4.60335844E-02                    1_GWF-(1,26622)  7.16251941E-03                    1_GWF-(1,14801)
        133          3         33 -3.52791722E-02                    1_GWF-(1,26649) -8.12005960E-03                    1_GWF-(1,14801)
        134          3         34  2.88182181E-02                    1_GWF-(1,25735)  7.67872757E-03                    1_GWF-(1,14801)
        135          3         35 -3.64227228E-02                    1_GWF-(1,26665)  3.05886066E-03                    1_GWF-(1,14800)
        136          3         36  4.14102541E-02                    1_GWF-(1,26665) -8.42272014E-04                    1_GWF-(1,15942)
        137          3         37  3.82371028E-02                    1_GWF-(1,26666)  2.91440115E-03                    1_GWF-(1,14801)
        138          3         38  2.96245919E-02                    1_GWF-(1,26665) -3.81545860E-03                    1_GWF-(1,14801)
        139          3         39 -2.01254778E-02                    1_GWF-(1,26665)  3.72405042E-03                    1_GWF-(1,14801)
        140          3         40  2.07365980E-02                    1_GWF-(1,26421) -3.18684072E-03                    1_GWF-(1,14801)
        141          3         41  2.40236765E-02                    1_GWF-(1,26486)  1.21910361E-03                    1_GWF-(1,14801)
        142          3         42  2.78532689E-02                    1_GWF-(1,26487)  7.15405370E-04                    1_GWF-(1,14801)
        143          3         43  2.93129432E-02                    1_GWF-(1,26486) -2.43525482E-03                    1_GWF-(1,14801)
        144          3         44  2.96099969E-02                    1_GWF-(1,26588) -2.35209506E-03                    1_GWF-(1,14800)
        145          3         45  2.13544814E-02                    1_GWF-(1,26622) -2.20880868E-03                    1_GWF-(1,14801)
        146          3         46  2.03652016E-02                    1_GWF-(1,26649) -1.55080947E-03                    1_GWF-(1,14800)
        147          3         47 -1.69001618E-02                    1_GWF-(1,26138) -1.54745699E-03                    1_GWF-(1,14801)
        148          3         48 -1.60890124E-02                    1_GWF-(1,26162) -8.71916650E-04                    1_GWF-(1,15939)
        149          3         49 -1.72893556E-02                    1_GWF-(1,26649)  6.52997821E-04                    1_GWF-(1,15939)
        150          3         50 -1.46111350E-02                    1_GWF-(1,26623)  4.94574961E-04                    1_GWF-(1,15854)
        151          4          1 -2.03514356E-02                    1_GWF-(1,11936)  3.93614465E-04                    1_GWF-(1,15939)
        152          4          2 -1.03793729E-02                    1_GWF-(1,11939) -3.65897604E-04                    1_GWF-(1,15939)
        153          4          3 -8.45355511E-03                    1_GWF-(1,26217) -6.13980985E-04                    1_GWF-(1,14801)
        154          4          4 -9.15826818E-03                    1_GWF-(1,26218) -5.96898559E-04                    1_GWF-(1,14800)
        155          4          5 -7.73348106E-03                    1_GWF-(1,26217) -7.22064111E-04                    1_GWF-(1,14801)
        156          4          6 -7.89607580E-03                    1_GWF-(1,20227) -7.50369970E-04                    1_GWF-(1,14800)
        157          4          7 -7.26512939E-03                    1_GWF-(1,20577) -8.95154240E-04                    1_GWF-(1,14801)
        158          4          8 -6.46607372E-03                    1_GWF-(1,26486)  4.59427669E-04                    1_GWF-(1,14801)
        159          4          9  6.75455846E-03                    1_GWF-(1,26486) -2.04993385E-04                    1_GWF-(1,15939)
        160          4         10  6.39905163E-03                    1_GWF-(1,26487) -4.19614308E-04                    1_GWF-(1,14801)
        161          4         11  5.16534247E-03                    1_GWF-(1,26486)  5.91660158E-04                    1_GWF-(1,14801)
        162          4         12  3.92929184E-03                    1_GWF-(1,26218)  7.05289111E-04                    1_GWF-(1,14800)
        163          4         13 -5.23154753E-03                    1_GWF-(1,26674)  7.52510233E-04                    1_GWF-(1,14801)
        164          4         14 -5.53218504E-03                    1_GWF-(1,26666) -5.18619404E-04                    1_GWF-(1,14801)
        165          4         15  5.70032246E-03                    1_GWF-(1,26666)  1.62645524E-04                    1_GWF-(1,14801)
        166          4         16  6.97346245E-03                    1_GWF-(1,26665)  4.76591999E-04                    1_GWF-(1,14801)
        167          4         17 -5.41888674E-03                    1_GWF-(1,20586)  6.21831248E-04                    1_GWF-(1,14800)
        168          4         18 -3.89794204E-03                    1_GWF-(1,20710)  7.92795068E-04                    1_GWF-(1,14801)
        169          4         19  4.19290179E-03                    1_GWF-(1,26622)  6.16137661E-04                    1_GWF-(1,14800)
        170          4         20 -4.01328353E-03                    1_GWF-(1,26622)  3.52694950E-04                    1_GWF-(1,14801)
        171          4         21 -4.87672672E-03                    1_GWF-(1,26649)  2.72020840E-04                    1_GWF-(1,14801)
        172          4         22 -4.38933907E-03                    1_GWF-(1,26622) -5.97673871E-04                    1_GWF-(1,14801)
        173          4         23 -4.45211596E-03                    1_GWF-(1,26486)  8.42226763E-04                    1_GWF-(1,14801)
        174          4         24 -4.52639160E-03                    1_GWF-(1,26487) -6.21639590E-04                    1_GWF-(1,14801)
        175          4         25 -4.36284610E-03                    1_GWF-(1,26588)  3.21031628E-04                    1_GWF-(1,14801)
        176          4         26 -3.66270971E-03                    1_GWF-(1,26487)  1.86131937E-04                    1_GWF-(1,14801)
        177          4         27 -2.75666410E-03                    1_GWF-(1,26420)  4.41228332E-04                    1_GWF-(1,14800)
        178          4         28 -2.25270732E-03                     1_GWF-(1,8218)  6.96792393E-04                    1_GWF-(1,14801)
        179          4         29 -1.66321100E-03                    1_GWF-(1,23297) -7.44953765E-04                    1_GWF-(1,14801)
        180          4         30  1.68998176E-03                    1_GWF-(1,26588)  7.67298624E-04                    1_GWF-(1,14801)
        181          4         31  1.69806993E-03                    1_GWF-(1,26422) -5.50425461E-04                    1_GWF-(1,14801)
        182          4         32  1.82930821E-03                    1_GWF-(1,26218)  4.69874935E-04                    1_GWF-(1,14801)
        183          4         33  1.38463529E-03                    1_GWF-(1,26217) -2.91400898E-04                    1_GWF-(1,14801)
        184          4         34  1.24818612E-03                    1_GWF-(1,26350)  2.05673091E-04                    1_GWF-(1,14801)
        185          4         35  1.26318164E-03                    1_GWF-(1,26422) -1.60958871E-04                    1_GWF-(1,14801)
        186          4         36  1.26968339E-03                     1_GWF-(1,7967)  8.56309676E-05                    1_GWF-(1,14801)
        187          4         37  1.24442778E-03                     1_GWF-(1,7967)  8.24553737E-05                    1_GWF-(1,15939)
        188          4         38  1.03095858E-03                     1_GWF-(1,8064) -8.26676237E-05                    1_GWF-(1,15939)
        189          4         39  9.24500199E-04                     1_GWF-(1,8068)  6.79955268E-05                    1_GWF-(1,15939)
        190          4         40 -1.19269699E-03                    1_GWF-(1,26422)  8.44977693E-05                    1_GWF-(1,14799)
        191          4         41 -1.15926470E-03                    1_GWF-(1,26350)  6.46472520E-05                    1_GWF-(1,14801)
        192          4         42 -1.16023778E-03                    1_GWF-(1,26422)  6.69755407E-05                    1_GWF-(1,14800)
        193          4         43 -1.09124436E-03                    1_GWF-(1,26350)  8.30761660E-05                    1_GWF-(1,14801)
        194          4         44 -9.89801492E-04                    1_GWF-(1,26422)  6.90802283E-05                    1_GWF-(1,14800)
        195          4         45  8.05325554E-04                    1_GWF-(1,26422)  8.74207655E-05                    1_GWF-(1,14801)
        196          4         46 -8.46725933E-04                    1_GWF-(1,26422)  7.12415777E-05                    1_GWF-(1,14800)
        197          4         47 -6.68453952E-04                    1_GWF-(1,26350)  7.02477631E-05                    1_GWF-(1,14801)
        198          4         48  6.15334683E-04                    1_GWF-(1,26350)  5.61644063E-05                    1_GWF-(1,14800)
        199          4         49  7.81881983E-04                    1_GWF-(1,11437)  5.96037633E-05                    1_GWF-(1,14801)
        200          4         50  7.29301235E-04                    1_GWF-(1,26586)  3.96889413E-05                    1_GWF-(1,15939)
        201          5          1 -1.06123981E-02                    1_GWF-(1,11378)  3.09598093E-05                    1_GWF-(1,14801)
        202          5          2 -3.11595449E-03                    1_GWF-(1,11369)  2.83174083E-05                    1_GWF-(1,14800)
        203          5          3 -1.76863968E-03                    1_GWF-(1,11456)  4.20750996E-05                    1_GWF-(1,14801)
        204          5          4  1.24488473E-03                    1_GWF-(1,11381)  4.87930785E-05                    1_GWF-(1,14800)
        205          5          5  1.27319548E-03                    1_GWF-(1,11459)  6.56958883E-05                    1_GWF-(1,14801)
        206          5          6  1.32897166E-03                    1_GWF-(1,11460)  5.19298464E-05                    1_GWF-(1,14800)
        207          5          7  1.00211910E-03                    1_GWF-(1,11416)  5.87501823E-05                    1_GWF-(1,14801)
        208          5          8 -1.15878384E-03                    1_GWF-(1,11454)  4.77121758E-05                    1_GWF-(1,14800)
        209          5          9 -7.49594561E-04                    1_GWF-(1,11453)  4.30254204E-05                    1_GWF-(1,14801)
        210          5         10  7.83924986E-04                    1_GWF-(1,11461)  4.24925613E-05                    1_GWF-(1,14799)
        211          5         11  6.46936078E-04                    1_GWF-(1,26649)  3.81053280E-05                    1_GWF-(1,14800)
        212          5         12  6.26007696E-04                    1_GWF-(1,26486)  4.90528977E-05                    1_GWF-(1,14801)
        213          5         13 -6.76485819E-04                    1_GWF-(1,11458)  3.24947407E-05                    1_GWF-(1,14800)
        214          5         14 -5.98016911E-04                    1_GWF-(1,11454)  2.53631684E-05                    1_GWF-(1,15939)
        215          5         15  6.40065794E-04                    1_GWF-(1,11456)  2.27671063E-05                    1_GWF-(1,14799)
        216          5         16 -5.00817237E-04                    1_GWF-(1,11456) -2.27105287E-05                    1_GWF-(1,14799)
        217          5         17 -7.51703618E-04                    1_GWF-(1,11459)  3.01231388E-05                    1_GWF-(1,14799)
        218          5         18  5.32065415E-04                    1_GWF-(1,11466) -2.01315848E-05                    1_GWF-(1,14799)
        219          5         19 -5.64338145E-04                    1_GWF-(1,26486)  2.90697090E-05                    1_GWF-(1,14801)
        220          5         20 -6.27629361E-04                    1_GWF-(1,26487)  2.32727310E-05                    1_GWF-(1,14800)
        221          5         21 -4.97312562E-04                    1_GWF-(1,26420)  2.29370212E-05                    1_GWF-(1,14798)
        222          5         22 -3.77645366E-04                    1_GWF-(1,11458)  4.18401042E-05                    1_GWF-(1,14799)
        223          5         23  5.27014065E-04                    1_GWF-(1,11458)  2.70486499E-05                    1_GWF-(1,14800)
        224          5         24  3.92016130E-04                     1_GWF-(1,8212) -3.42568819E-05                    1_GWF-(1,14800)
        225          5         25  4.21428022E-04                     1_GWF-(1,8047) -5.77889397E-05                    1_GWF-(1,14801)
        226          5         26  3.22429590E-04                     1_GWF-(1,8043)  6.96371946E-05                    1_GWF-(1,14801)
        227          5         27  3.53975653E-04                    1_GWF-(1,26588)  6.50096543E-05                    1_GWF-(1,14800)
        228          5         28  3.58267636E-04                    1_GWF-(1,26543)  7.55308482E-05                    1_GWF-(1,14801)
        229          5         29  4.18829944E-04                    1_GWF-(1,26588) -6.51507819E-05                    1_GWF-(1,14801)
        230          5         30 -4.23374287E-04                    1_GWF-(1,26588) -2.12529538E-05                    1_GWF-(1,14799)
        231          5         31 -3.20097446E-04                    1_GWF-(1,26543)  4.30838634E-05                    1_GWF-(1,14801)
        232          5         32 -2.76486717E-04                    1_GWF-(1,26588) -5.73906042E-05                    1_GWF-(1,14801)
        233          5         33 -1.88795301E-04                    1_GWF-(1,26543)  7.91284814E-05                    1_GWF-(1,14801)
        234          5         34 -1.66065757E-04                    1_GWF-(1,26350) -9.35356714E-05                    1_GWF-(1,14801)
        235          5         35 -1.57969181E-04                    1_GWF-(1,26422)  1.06797617E-04                    1_GWF-(1,14801)
        236          5         36 -1.23499460E-04                    1_GWF-(1,22410) -7.99034834E-05                    1_GWF-(1,14801)
        237          5         37 -1.12542101E-04                    1_GWF-(1,22533)  5.91893949E-05                    1_GWF-(1,14801)
        238          5         38  1.39519885E-04                     1_GWF-(1,8190) -3.96301593E-05                    1_GWF-(1,14801)
        239          5         39  1.46688394E-04                     1_GWF-(1,8091)  2.73158583E-05                    1_GWF-(1,14801)
        240          5         40 -1.70481381E-04                    1_GWF-(1,26665)  1.31629210E-05                    1_GWF-(1,14799)
        241          5         41  1.63649346E-04                    1_GWF-(1,26665) -1.74119931E-05                    1_GWF-(1,14801)
        242          5         42 -1.75914317E-04                    1_GWF-(1,26665)  2.98274567E-05                    1_GWF-(1,14801)
        243          5         43 -1.38562670E-04                    1_GWF-(1,26666) -2.89693761E-05                    1_GWF-(1,14801)
        244          5         44 -1.13869877E-04                    1_GWF-(1,25556) -2.31102991E-05                    1_GWF-(1,14800)
        245          5         45 -9.89461635E-05                    1_GWF-(1,25627) -1.96706109E-05                    1_GWF-(1,14801)
        246          5         46 -8.68269213E-05                    1_GWF-(1,25540) -1.39638147E-05                    1_GWF-(1,14799)
        247          5         47 -9.09091219E-05                    1_GWF-(1,26136)  1.25017851E-05                    1_GWF-(1,14799)
        248          5         48 -9.25768658E-05                    1_GWF-(1,26135) -1.71632321E-05                    1_GWF-(1,14799)
        249          5         49 -9.03593551E-05                    1_GWF-(1,20572)  1.34379315E-05                    1_GWF-(1,14799)
        250          5         50 -9.04108162E-05                    1_GWF-(1,20225) -1.55036406E-05                    1_GWF-(1,14799)
        251          6          1 -6.21846816E-05                    1_GWF-(1,26217)  1.72151487E-05                    1_GWF-(1,14799)
        252          6          2 -7.84979732E-05                    1_GWF-(1,26218) -1.94594659E-05                    1_GWF-(1,14799)
        253          6          3 -7.94998672E-05                    1_GWF-(1,20979)  1.55613617E-05                    1_GWF-(1,14799)
        254          6          4 -8.11874338E-05                    1_GWF-(1,21356) -1.48890605E-05                    1_GWF-(1,14799)
        255          6          5 -7.83203699E-05                    1_GWF-(1,26487) -8.89696767E-06                    1_GWF-(1,14798)
        256          6          6 -9.99919079E-05                    1_GWF-(1,26486) -4.68124686E-06                    1_GWF-(1,14800)
        257          6          7 -9.12091299E-05                    1_GWF-(1,26487) -8.16862298E-06                    1_GWF-(1,14799)
        258          6          8 -7.34763721E-05                    1_GWF-(1,21689)  1.02862163E-05                    1_GWF-(1,14799)
        259          6          9 -7.34738254E-05                    1_GWF-(1,21678) -1.26475810E-05                    1_GWF-(1,14799)
        260          6         10 -6.33823911E-05                    1_GWF-(1,21691) -1.11226484E-05                    1_GWF-(1,14801)
        261          6         11 -5.83649877E-05                     1_GWF-(1,8091)  1.06457074E-05                    1_GWF-(1,14801)
        262          6         12 -5.05587337E-05                     1_GWF-(1,8091)  8.61134886E-06                    1_GWF-(1,14800)
        263          6         13 -6.33981680E-05                    1_GWF-(1,26665)  5.53542025E-06                    1_GWF-(1,14801)
        264          6         14 -5.73275565E-05                    1_GWF-(1,26666)  4.93102063E-06                    1_GWF-(1,14798)
        265          6         15 -5.23083851E-05                    1_GWF-(1,26665)  7.45340178E-06                    1_GWF-(1,14799)
        266          6         16 -5.88315435E-05                    1_GWF-(1,21270)  1.03764104E-05                    1_GWF-(1,14801)
        267          6         17 -5.20349912E-05                    1_GWF-(1,20610) -1.07452525E-05                    1_GWF-(1,14801)
        268          6         18 -4.47839411E-05                    1_GWF-(1,20735)  1.03227210E-05                    1_GWF-(1,14801)
        269          6         19  4.54467173E-05                    1_GWF-(1,26622)  5.86413610E-06                    1_GWF-(1,14800)
        270          6         20  4.69204130E-05                    1_GWF-(1,26649)  3.78025705E-06                    1_GWF-(1,14799)
        271          6         21 -4.67820179E-05                    1_GWF-(1,26486) -6.91936018E-06                    1_GWF-(1,14800)
        272          6         22 -3.91451404E-05                    1_GWF-(1,26487) -1.11202962E-05                    1_GWF-(1,14801)
        273          6         23 -3.57313245E-05                    1_GWF-(1,26486)  1.29087738E-05                    1_GWF-(1,14801)
        274          6         24 -2.91205679E-05                    1_GWF-(1,26542) -1.05291850E-05                    1_GWF-(1,14801)
        275          6         25 -3.07442835E-05                     1_GWF-(1,8017)  9.72216879E-06                    1_GWF-(1,14801)
        276          6         26 -2.87509431E-05                     1_GWF-(1,8037) -8.28421567E-06                    1_GWF-(1,14801)
        277          6         27 -2.82204448E-05                     1_GWF-(1,8218)  6.29533069E-06                    1_GWF-(1,14801)
        278          6         28 -2.06685958E-05                     1_GWF-(1,8047) -4.01954727E-06                    1_GWF-(1,14801)
        279          6         29  2.37476468E-05                    1_GWF-(1,26588)  3.17530054E-06                    1_GWF-(1,14801)
        280          6         30  2.42395110E-05                    1_GWF-(1,26543)  1.40681446E-06                    1_GWF-(1,14798)
        281          6         31  2.91133715E-05                    1_GWF-(1,26588) -1.72115703E-06                    1_GWF-(1,14801)
        282          6         32  2.19902211E-05                    1_GWF-(1,26543)  2.91411531E-06                    1_GWF-(1,14801)
        283          6         33  1.85415836E-05                    1_GWF-(1,26420)  2.14290090E-06                    1_GWF-(1,14800)
        284          6         34  1.20902023E-05                    1_GWF-(1,26487)  1.79776772E-06                    1_GWF-(1,14799)
        285          6         35  1.66754338E-05                     1_GWF-(1,7939) -1.65631507E-06                    1_GWF-(1,14799)
        286          6         36  1.74820212E-05                     1_GWF-(1,7950)  1.52531846E-06                    1_GWF-(1,14799)
        287          6         37  1.78685687E-05                     1_GWF-(1,8082)  1.52120908E-06                    1_GWF-(1,14798)
        288          6         38  1.55080563E-05                     1_GWF-(1,8056)  2.23524719E-06                    1_GWF-(1,14799)
        289          6         39  1.12816534E-05                     1_GWF-(1,8077)  1.64759520E-06                    1_GWF-(1,14798)
        290          6         40 -1.24527879E-05                    1_GWF-(1,26422)  2.29683016E-06                    1_GWF-(1,14799)
        291          6         41 -1.24957514E-05                    1_GWF-(1,11461)  1.18822079E-06                    1_GWF-(1,14798)
        292          6         42 -1.16479379E-05                    1_GWF-(1,26422)  8.73615154E-07                    1_GWF-(1,14799)
        293          6         43  1.20972000E-05                    1_GWF-(1,11454)  8.68289625E-07                    1_GWF-(1,14801)
        294          6         44 -1.05769106E-05                    1_GWF-(1,11416)  5.49558464E-07                    1_GWF-(1,14798)
        295          6         45 -1.24648393E-05                    1_GWF-(1,11460)  7.99081606E-07                    1_GWF-(1,14799)
        296          6         46 -1.28520984E-05                    1_GWF-(1,11459)  6.39436632E-07                    1_GWF-(1,14801)
        297          6         47 -1.06757020E-05                    1_GWF-(1,11381)  5.72379709E-07                    1_GWF-(1,14800)
        298          6         48  1.46015921E-05                    1_GWF-(1,11453)  7.00696504E-07                    1_GWF-(1,14801)
        299          6         49  1.82341765E-05                    1_GWF-(1,11454)  7.07114770E-07                    1_GWF-(1,14800)
        300          6         50  2.53750730E-05                    1_GWF-(1,11369)  1.56126702E-06                    1_GWF-(1,14799)
        301          7          1 -2.78259783E-05                    1_GWF-(1,11369) -9.16554508E-07                    1_GWF-(1,14799)
        302          7          2 -1.60124829E-05                    1_GWF-(1,11378)  8.94386269E-07                    1_GWF-(1,14799)
        303          7          3 -1.11971792E-05                    1_GWF-(1,11453)  4.92737625E-07                    1_GWF-(1,14798)
        304          7          4  1.03791256E-05                    1_GWF-(1,26486)  2.96156024E-07                    1_GWF-(1,14801)
        305          7          5  9.10885771E-06                    1_GWF-(1,11453)  6.85807146E-07                    1_GWF-(1,14799)
        306          7          6  9.59819488E-06                    1_GWF-(1,11460)  6.24685843E-07                    1_GWF-(1,14798)
        307          7          7 -7.69647189E-06                    1_GWF-(1,11468)  7.58021916E-07                    1_GWF-(1,14799)
        308          7          8 -8.89070014E-06                    1_GWF-(1,11378)  5.69977391E-07                    1_GWF-(1,14800)
        309          7          9  8.14115399E-06                    1_GWF-(1,20584)  5.73230872E-07                    1_GWF-(1,14801)
        310          7         10  8.76916849E-06                    1_GWF-(1,11461)  9.18744363E-07                    1_GWF-(1,14799)
        311          7         11 -7.78432102E-06                    1_GWF-(1,26648)  7.05087335E-07                    1_GWF-(1,14798)
        312          7         12 -9.79063983E-06                    1_GWF-(1,26649)  5.38724892E-07                    1_GWF-(1,14799)
        313          7         13  8.77567108E-06                    1_GWF-(1,26649)  3.88917114E-07                    1_GWF-(1,14799)
        314          7         14  6.50592706E-06                    1_GWF-(1,26622)  5.24683107E-07                    1_GWF-(1,14798)
        315          7         15 -6.44160361E-06                     1_GWF-(1,7950)  7.04424070E-07                    1_GWF-(1,14799)
        316          7         16 -7.31080292E-06                     1_GWF-(1,7950) -8.38403302E-07                    1_GWF-(1,14799)
        317          7         17 -5.00284854E-06                    1_GWF-(1,11459)  1.08169543E-06                    1_GWF-(1,14799)
        318          7         18 -5.40637983E-06                    1_GWF-(1,26623) -7.93082244E-07                    1_GWF-(1,14799)
        319          7         19 -6.69863369E-06                    1_GWF-(1,26665)  6.03074351E-07                    1_GWF-(1,14799)
        320          7         20 -6.27650344E-06                    1_GWF-(1,26666)  3.33364883E-07                    1_GWF-(1,14799)
        321          7         21 -6.50989151E-06                    1_GWF-(1,26665)  6.00831505E-07                    1_GWF-(1,14798)
        322          7         22 -4.72380062E-06                    1_GWF-(1,26588)  9.95997961E-07                    1_GWF-(1,14799)
        323          7         23  4.45663988E-06                    1_GWF-(1,26588) -8.24214593E-07                    1_GWF-(1,14799)
        324          7         24  5.66297567E-06                     1_GWF-(1,8046)  7.51321841E-07                    1_GWF-(1,14799)
        325          7         25  5.13533416E-06                    1_GWF-(1,26588) -5.40792329E-07                    1_GWF-(1,14799)
        326          7         26  5.20842070E-06                    1_GWF-(1,26543)  3.20691909E-07                    1_GWF-(1,14801)
        327          7         27  5.07114938E-06                    1_GWF-(1,26588)  6.37003864E-07                    1_GWF-(1,14799)
        328          7         28  4.03798488E-06                    1_GWF-(1,26543) -7.40945429E-07                    1_GWF-(1,14799)
        329          7         29  2.98586073E-06                    1_GWF-(1,22568)  6.76881259E-07                    1_GWF-(1,14799)
        330          7         30 -3.67412883E-06                     1_GWF-(1,8040) -7.98753173E-07                    1_GWF-(1,14799)
        331          7         31 -3.33760071E-06                     1_GWF-(1,8039)  7.20593231E-07                    1_GWF-(1,14799)
        332          7         32 -3.02961013E-06                     1_GWF-(1,8189) -5.95898668E-07                    1_GWF-(1,14801)
        333          7         33  1.80977591E-06                    1_GWF-(1,11454)  7.33676724E-07                    1_GWF-(1,14801)
        334          7         34  1.70643146E-06                    1_GWF-(1,20915) -7.93630968E-07                    1_GWF-(1,14801)
        335          7         35  2.59824004E-06                    1_GWF-(1,26622)  7.75028510E-07                    1_GWF-(1,14801)
        336          7         36 -3.20675934E-06                    1_GWF-(1,26622) -2.88587838E-07                    1_GWF-(1,14801)
        337          7         37 -2.89173927E-06                    1_GWF-(1,26649) -2.65538249E-07                    1_GWF-(1,14801)
        338          7         38 -2.14804460E-06                    1_GWF-(1,26622)  6.17393025E-07                    1_GWF-(1,14801)
        339          7         39  1.88628913E-06                     1_GWF-(1,8179) -6.79822952E-07                    1_GWF-(1,14801)
        340          7         40  1.77802508E-06                     1_GWF-(1,8094)  7.38780217E-07                    1_GWF-(1,14801)
        341          7         41 -1.32391105E-06                    1_GWF-(1,20581) -7.24581321E-07                    1_GWF-(1,14801)
        342          7         42 -1.37118927E-06                    1_GWF-(1,26486)  5.12812035E-07                    1_GWF-(1,14801)
        343          7         43  1.73637912E-06                    1_GWF-(1,26486)  1.92404141E-07                    1_GWF-(1,14799)
        344          7         44  2.31949390E-06                    1_GWF-(1,26487) -2.01398285E-07                    1_GWF-(1,14801)
        345          7         45  2.31723764E-06                    1_GWF-(1,26486)  3.22547015E-07                    1_GWF-(1,14801)
        346          7         46  1.63862819E-06                    1_GWF-(1,26487) -3.50195314E-07                    1_GWF-(1,14801)
        347          7         47 -9.59850616E-07                    1_GWF-(1,25657)  2.47328592E-07                    1_GWF-(1,14801)
        348          8          1 -6.13591540E-07                    1_GWF-(1,26486) -2.74674143E-07                    1_GWF-(1,14801)
 --------------------------------------------------------------------------------------------------------------------------------------



 MEMORY MANAGER TOTAL STORAGE BY DATA TYPE, IN MEGABYTES
 -------------------------------
                    ALLOCATED   
 DATA TYPE           MEMORY     
 -------------------------------
 Character        4.66090000E-02
 Logical          4.40000000E-05
 Integer          5.2037920     
 Real             11.901376     
 -------------------------------
 Total            17.151821     
 -------------------------------


 
 Run end date and time (yyyy/mm/dd hh:mm:ss): 2022/04/29 15:36:48
 Elapsed run time:  0.503 Seconds
 Normal termination of simulation.
