                                   MODFLOW 6
                U.S. GEOLOGICAL SURVEY MODULAR HYDROLOGIC MODEL
                            VERSION 6.2.2 07/30/2021

   MODFLOW 6 compiled Jul 31 2021 14:22:53 with IFORT compiler (ver. 19.10.3)

This software has been approved for release by the U.S. Geological 
Survey (USGS). Although the software has been subjected to rigorous 
review, the USGS reserves the right to update the software as needed 
pursuant to further analysis and review. No warranty, expressed or 
implied, is made by the USGS or the U.S. Government as to the 
functionality of the software and related material nor shall the 
fact of release constitute any such warranty. Furthermore, the 
software is released on condition that neither the USGS nor the U.S. 
Government shall be held liable for any damages resulting from its 
authorized or unauthorized use. Also refer to the USGS Water 
Resources Software User Rights Notice for complete use, copyright, 
and distribution information.


System command used to initiate simulation:
mf6

MODFLOW was compiled using uniform precision.

Real Variables
  KIND: 8
  TINY (smallest non-zero value):    2.225074-308
  HUGE (largest value):    1.797693+308
  PRECISION: 15
  BIT SIZE: 64

Integer Variables
  KIND: 4
  HUGE (largest value): 2147483647
  BIT SIZE: 32

Long Integer Variables
  KIND: 8
  HUGE (largest value): 9223372036854775807
  BIT SIZE: 64

Logical Variables
  KIND: 4
  BIT SIZE: 32
 

 OPENED mfsim.nam
 FILE TYPE:NAM   UNIT 1001   STATUS:OLD                 
 FORMAT:FORMATTED              ACCESS:SEQUENTIAL          
 ACTION:READ                

 # File generated by Flopy version 3.3.5 on 04/28/2022 at 15:58:37.

 READING SIMULATION OPTIONS
 END OF SIMULATION OPTIONS

 READING SIMULATION TIMING

 OPENED mfsim.tdis
 FILE TYPE:TDIS   UNIT 1002   STATUS:OLD                 
 FORMAT:FORMATTED              ACCESS:SEQUENTIAL          
 ACTION:READ                


 TDIS -- TEMPORAL DISCRETIZATION PACKAGE,
 VERSION 1 : 11/13/2014 - INPUT READ FROM UNIT 1002
 # File generated by Flopy version 3.3.5 on 04/28/2022 at 15:58:37.
 PROCESSING TDIS OPTIONS
    SIMULATION TIME UNIT IS SECONDS
 END OF TDIS OPTIONS
 PROCESSING TDIS DIMENSIONS
    1 STRESS PERIOD(S) IN SIMULATION
 END OF TDIS DIMENSIONS
 PROCESSING TDIS PERIODDATA


 STRESS PERIOD     LENGTH       TIME STEPS     MULTIPLIER FOR DELT
 ----------------------------------------------------------------------------
        1         2.000000          1                    1.000
 END OF TDIS PERIODDATA
 END OF SIMULATION TIMING

 READING SIMULATION MODELS
    GWF6 model ML will be created as model 1
 END OF SIMULATION MODELS

 READING SIMULATION EXCHANGES
 END OF SIMULATION EXCHANGES

 READING SOLUTIONGROUP

 Creating solution: SLN_1           

 OPENED mfsim.ims
 FILE TYPE:IMS   UNIT 1015   STATUS:OLD                 
 FORMAT:FORMATTED              ACCESS:SEQUENTIAL          
 ACTION:READ                

 END OF SIMULATION SOLUTIONGROUP

 IMS -- ITERATIVE MODEL SOLUTION PACKAGE, VERSION 6, 4/28/2017
         INPUT READ FROM UNIT 1015
 # File generated by Flopy version 3.3.5 on 04/28/2022 at 15:58:37.

 PROCESSING IMS OPTIONS
 END OF IMS OPTIONS

 PROCESSING IMS NONLINEAR
 END OF IMS NONLINEAR DATA
 ***UNDER-RELAXATION WILL NOT BE USED***
 
 ***IMS LINEAR SOLVER WILL BE USED***

 IMSLINEAR -- UNSTRUCTURED LINEAR SOLUTION PACKAGE, VERSION 8, 04/28/2017

 PROCESSING LINEAR DATA
 END OF LINEAR DATA
 
 OUTER ITERATION CONVERGENCE CRITERION    (DVCLOSE) =    0.100000E-04
 MAXIMUM NUMBER OF OUTER ITERATIONS        (MXITER) = 100
 SOLVER PRINTOUT INDEX                     (IPRIMS) = 2
 NONLINEAR ITERATION METHOD            (NONLINMETH) = 0
 LINEAR SOLUTION METHOD                   (LINMETH) = 1

       SOLUTION BY THE        CONJUGATE-GRADIENT       METHOD
 ------------------------------------------------------------------
 MAXIMUM OF 100 CALLS OF SOLUTION ROUTINE
 MAXIMUM OF 50 INTERNAL ITERATIONS PER CALL TO SOLUTION ROUTINE
 LINEAR ACCELERATION METHOD            = CG        
 MATRIX PRECONDITIONING TYPE           = INCOMPLETE LU       
 MATRIX SCALING APPROACH               = NO SCALING          
 MATRIX REORDERING APPROACH            = ORIGINAL ORDERING        
 NUMBER OF ORTHOGONALIZATIONS          = 0
 HEAD CHANGE CRITERION FOR CLOSURE     =    0.10000E-05
 RESIDUAL CHANGE CRITERION FOR CLOSURE =    0.10000E-04
 RESIDUAL CONVERGENCE OPTION           = 1
 RESIDUAL CONVERGENCE NORM             = INFINITY NORM S 
 RELAXATION FACTOR                     =    0.00000E+00



 
    Solving:  Stress period:     1    Time step:     1
 
1
                            STRESS PERIOD NO. 1, LENGTH =   2.000000    
                            -----------------------------------------------
                            NUMBER OF TIME STEPS = 1
                            MULTIPLIER FOR DELT =     1.000
                            INITIAL TIME STEP SIZE =   2.000000    

 SLN_1 OUTER ITERATION SUMMARY
 ----------------------------------------------------------------------------------------------------------
                                OUTER      INNER                    STEP   MAXIMUM CHANGE MODEL-(CELLID) OR
 OUTER ITERATION STEP       ITERATION  ITERATION  MAXIMUM CHANGE SUCCESS             MODEL-PACKAGE-(NUMBER)
 ----------------------------------------------------------------------------------------------------------
 Model                              1         50       44.446959                            1_GWF-(1,26519)
 Model                              2         50      -39.483234                            1_GWF-(1,26519)
 Model                              3         50     -0.89897159                            1_GWF-(1,21054)
 Model                              4         50      0.29439215                            1_GWF-(1,25265)
 Model                              5         50 -4.42446131E-02                            1_GWF-(1,25410)
 Model                              6         50  1.79448012E-02                            1_GWF-(1,25265)
 Model                              7         50 -2.98541472E-03                            1_GWF-(1,25410)
 Model                              8         50  1.12829385E-03                            1_GWF-(1,25265)
 Model                              9         50 -1.95540555E-04                            1_GWF-(1,25411)
 Model                             10         50  7.72355533E-05                            1_GWF-(1,25265)
 Model                             11         36 -1.23656203E-05                            1_GWF-(1,22562)
 Model                             12          1  5.22025468E-07       *                    1_GWF-(1,26486)
 ----------------------------------------------------------------------------------------------------------


 12 CALLS TO NUMERICAL SOLUTION IN TIME STEP 1 STRESS PERIOD 1
 537 TOTAL ITERATIONS

 SLN_1 INNER ITERATION SUMMARY
 --------------------------------------------------------------------------------------------------------------------------------------
      TOTAL      OUTER      INNER                                                            MAXIMUM                                   
  ITERATION  ITERATION  ITERATION  MAXIMUM CHANGE      MAXIMUM CHANGE MODEL-(CELLID)        RESIDUAL    MAXIMUM RESIDUAL MODEL-(CELLID)
 --------------------------------------------------------------------------------------------------------------------------------------
          1          1          1      -11.850849                    1_GWF-(1,12785)      0.15902152                    1_GWF-(1,11171)
          2          1          2       7.7931703                    1_GWF-(1,26516)      0.21848841                    1_GWF-(1,10969)
          3          1          3       9.4361919                    1_GWF-(1,26565)      0.20940505                    1_GWF-(1,10968)
          4          1          4       8.7039479                    1_GWF-(1,26510)      0.18717333                    1_GWF-(1,10955)
          5          1          5       6.7545899                    1_GWF-(1,26647)      0.18309820                    1_GWF-(1,10869)
          6          1          6       7.1644916                    1_GWF-(1,26649)      0.14842164                    1_GWF-(1,11140)
          7          1          7       5.5358214                    1_GWF-(1,26622)      0.19782784                    1_GWF-(1,10969)
          8          1          8       4.5332037                    1_GWF-(1,26665)      0.16064031                    1_GWF-(1,10963)
          9          1          9       3.8973870                    1_GWF-(1,26647)      0.16356843                    1_GWF-(1,10956)
         10          1         10       4.5772347                    1_GWF-(1,26665)      0.16193102                    1_GWF-(1,10869)
         11          1         11       4.2097079                    1_GWF-(1,26544)      0.14050506                    1_GWF-(1,10969)
         12          1         12       3.0843987                    1_GWF-(1,26486)      0.14020557                    1_GWF-(1,10966)
         13          1         13       3.0170972                    1_GWF-(1,26622)      0.13115371                    1_GWF-(1,10962)
         14          1         14       2.4842003                    1_GWF-(1,26623)      0.12480843                    1_GWF-(1,10969)
         15          1         15       2.3281939                    1_GWF-(1,26622)      0.14181326                    1_GWF-(1,10968)
         16          1         16       1.5421761                    1_GWF-(1,26623)      0.12970916                    1_GWF-(1,10961)
         17          1         17      -1.5545641                    1_GWF-(1,26623)      0.13235003                    1_GWF-(1,10958)
         18          1         18       2.4777357                    1_GWF-(1,26588)      0.14309099                    1_GWF-(1,10969)
         19          1         19      -3.3558982                    1_GWF-(1,26588)      0.13939707                    1_GWF-(1,10968)
         20          1         20      -3.1588176                    1_GWF-(1,26543)      0.12889022                    1_GWF-(1,10963)
         21          1         21      -2.7145301                    1_GWF-(1,26544)      0.11832348                    1_GWF-(1,10958)
         22          1         22      -3.5113586                    1_GWF-(1,26486)      0.12818031                    1_GWF-(1,10969)
         23          1         23      -3.9552014                    1_GWF-(1,26487)      0.11251669                    1_GWF-(1,10965)
         24          1         24      -4.2158941                    1_GWF-(1,26486)      0.12161792                    1_GWF-(1,10963)
         25          1         25      -3.3485381                    1_GWF-(1,26487)      0.10618452                    1_GWF-(1,10955)
         26          1         26      -2.2640566                    1_GWF-(1,26588)  9.22935107E-02                    1_GWF-(1,10869)
         27          1         27       2.2066983                    1_GWF-(1,26420)      0.11377634                    1_GWF-(1,10965)
         28          1         28       1.8132264                    1_GWF-(1,26421)      0.11407322                    1_GWF-(1,10957)
         29          1         29       1.8062584                    1_GWF-(1,26420)      0.10363145                    1_GWF-(1,10872)
         30          1         30       1.9786058                    1_GWF-(1,26422)      0.10436494                    1_GWF-(1,10965)
         31          1         31       2.2432923                    1_GWF-(1,26350)      0.11735750                    1_GWF-(1,10960)
         32          1         32       2.5732008                    1_GWF-(1,26422)  9.86291216E-02                    1_GWF-(1,10958)
         33          1         33      -2.5122232                    1_GWF-(1,26422) -7.86528658E-02                    1_GWF-(1,10960)
         34          1         34       2.4129889                    1_GWF-(1,26422)  6.56524661E-02                    1_GWF-(1,10966)
         35          1         35      -2.0636311                    1_GWF-(1,26422)  7.15979380E-02                    1_GWF-(1,10958)
         36          1         36      -1.5722870                    1_GWF-(1,26350)  6.11571233E-02                    1_GWF-(1,10968)
         37          1         37      -1.2566879                    1_GWF-(1,26422) -4.63368109E-02                    1_GWF-(1,10962)
         38          1         38     -0.94897564                    1_GWF-(1,24901) -5.42974318E-02                    1_GWF-(1,10967)
         39          1         39     -0.88174308                    1_GWF-(1,24895)  4.68221635E-02                    1_GWF-(1,10968)
         40          1         40      -1.0775103                    1_GWF-(1,26648)  4.32216224E-02                    1_GWF-(1,10961)
         41          1         41      -1.4120001                    1_GWF-(1,26649)  4.65294915E-02                    1_GWF-(1,10963)
         42          1         42      -1.5064311                    1_GWF-(1,26648) -4.64841985E-02                    1_GWF-(1,10991)
         43          1         43      -1.2936306                    1_GWF-(1,26586) -5.99363352E-02                    1_GWF-(1,11138)
         44          1         44      -1.1384696                    1_GWF-(1,26623)  4.30072768E-02                    1_GWF-(1,11140)
         45          1         45       1.0038210                    1_GWF-(1,26218) -5.28180083E-02                    1_GWF-(1,11140)
         46          1         46     -0.88331737                    1_GWF-(1,21319) -4.71683833E-02                    1_GWF-(1,11138)
         47          1         47      -1.1044332                    1_GWF-(1,26217)  4.65542101E-02                    1_GWF-(1,11139)
         48          1         48      -1.4308930                    1_GWF-(1,26218)  4.77688702E-02                    1_GWF-(1,14868)
         49          1         49      -1.4939500                    1_GWF-(1,26217) -4.95557197E-02                    1_GWF-(1,10990)
         50          1         50      -1.3876014                    1_GWF-(1,26218)  4.30283480E-02                    1_GWF-(1,14868)
         51          2          1      -41.190474                    1_GWF-(1,26519)     -0.14273779                    1_GWF-(1,26519)
         52          2          2      -15.962974                    1_GWF-(1,26513) -4.49876097E-02                    1_GWF-(1,26516)
         53          2          3      -7.5985980                    1_GWF-(1,26637)  3.55275236E-02                    1_GWF-(1,26516)
         54          2          4      -9.2494229                    1_GWF-(1,26665)  3.42992799E-02                    1_GWF-(1,14868)
         55          2          5      -4.9220275                    1_GWF-(1,26622)  2.79228935E-02                    1_GWF-(1,14869)
         56          2          6      -4.7438133                    1_GWF-(1,26589)  4.20238260E-02                    1_GWF-(1,14868)
         57          2          7      -3.8362351                    1_GWF-(1,26543)  3.94269407E-02                    1_GWF-(1,14869)
         58          2          8      -3.5700148                    1_GWF-(1,26486)  6.43442438E-02                    1_GWF-(1,14868)
         59          2          9      -2.4022292                    1_GWF-(1,26487)  4.19245179E-02                    1_GWF-(1,14869)
         60          2         10      -2.2723577                    1_GWF-(1,26350)  4.07985407E-02                    1_GWF-(1,14868)
         61          2         11      -1.8805535                    1_GWF-(1,26348)  9.82540224E-03                    1_GWF-(1,14868)
         62          2         12      -1.6444164                    1_GWF-(1,26217)  2.33000725E-02                    1_GWF-(1,14869)
         63          2         13      -1.0495741                    1_GWF-(1,26218)  3.67627398E-02                    1_GWF-(1,14868)
         64          2         14     -0.69590078                    1_GWF-(1,26649)  2.99392917E-02                    1_GWF-(1,14869)
         65          2         15     -0.73975598                    1_GWF-(1,26622)  2.52534265E-02                    1_GWF-(1,14868)
         66          2         16      0.89843499                    1_GWF-(1,26420)  2.46232622E-02                    1_GWF-(1,14868)
         67          2         17       1.1731982                    1_GWF-(1,26218)  2.80130801E-02                    1_GWF-(1,14869)
         68          2         18      0.97119506                    1_GWF-(1,26217)  3.94626816E-02                    1_GWF-(1,14868)
         69          2         19      0.84871214                    1_GWF-(1,26218)  2.51095987E-02                    1_GWF-(1,14869)
         70          2         20      0.66333882                    1_GWF-(1,26543)  2.28188441E-02                    1_GWF-(1,14868)
         71          2         21      0.94337987                    1_GWF-(1,26588)  1.52593073E-02                    1_GWF-(1,14868)
         72          2         22      0.98934918                    1_GWF-(1,26543)  2.47481317E-02                    1_GWF-(1,14869)
         73          2         23     -0.62314992                    1_GWF-(1,26218)  4.53134908E-02                    1_GWF-(1,14868)
         74          2         24     -0.82099857                    1_GWF-(1,26487)  3.59692376E-02                    1_GWF-(1,14869)
         75          2         25      -1.1191210                    1_GWF-(1,26486)  3.58978157E-02                    1_GWF-(1,14868)
         76          2         26      -1.1092851                    1_GWF-(1,26487)  1.22789168E-02                    1_GWF-(1,14868)
         77          2         27     -0.71542275                    1_GWF-(1,26588)  2.77014135E-02                    1_GWF-(1,14869)
         78          2         28     -0.34701202                    1_GWF-(1,26398)  4.64965653E-02                    1_GWF-(1,14868)
         79          2         29     -0.38510533                    1_GWF-(1,26327)  4.27134240E-02                    1_GWF-(1,14869)
         80          2         30      0.35268457                    1_GWF-(1,26420)  6.52829085E-02                    1_GWF-(1,14868)
         81          2         31     -0.25450119                    1_GWF-(1,26175)  5.94719664E-02                    1_GWF-(1,14869)
         82          2         32     -0.25815575                    1_GWF-(1,26674)  8.95823605E-02                    1_GWF-(1,14868)
         83          2         33     -0.23677897                    1_GWF-(1,26350)  7.40117314E-02                    1_GWF-(1,14869)
         84          2         34     -0.19147144                    1_GWF-(1,25803)  9.58864157E-02                    1_GWF-(1,14868)
         85          2         35      0.30653200                    1_GWF-(1,26422)  6.46139318E-02                    1_GWF-(1,14869)
         86          2         36      0.25806131                    1_GWF-(1,26350)  6.71746401E-02                    1_GWF-(1,14868)
         87          2         37      0.19569772                    1_GWF-(1,26422)  3.68855216E-02                    1_GWF-(1,14869)
         88          2         38      0.19548861                    1_GWF-(1,26544)  2.78419305E-02                    1_GWF-(1,14868)
         89          2         39     -0.20451869                    1_GWF-(1,26649)  2.80717055E-02                    1_GWF-(1,14868)
         90          2         40     -0.28872086                    1_GWF-(1,26486)  4.99767145E-02                    1_GWF-(1,14869)
         91          2         41      0.22419848                    1_GWF-(1,26422)  9.32951696E-02                    1_GWF-(1,14868)
         92          2         42     -0.23495152                    1_GWF-(1,26421)     -0.10896918                    1_GWF-(1,14868)
         93          2         43     -0.35176359                    1_GWF-(1,26350)      0.13694154                    1_GWF-(1,14868)
         94          2         44     -0.21729488                    1_GWF-(1,26486)     -0.12475140                    1_GWF-(1,14868)
         95          2         45     -0.25796249                    1_GWF-(1,26420)      0.13140505                    1_GWF-(1,14868)
         96          2         46     -0.17203121                    1_GWF-(1,26421) -9.46485586E-02                    1_GWF-(1,14868)
         97          2         47     -0.24572300                    1_GWF-(1,26350)  8.20145407E-02                    1_GWF-(1,14868)
         98          2         48     -0.17344728                    1_GWF-(1,26664) -5.60054575E-02                    1_GWF-(1,14868)
         99          2         49     -0.16706353                    1_GWF-(1,26649)  5.63350465E-02                    1_GWF-(1,14868)
        100          2         50     -0.19747095                    1_GWF-(1,26623) -4.15521945E-02                    1_GWF-(1,14868)
        101          3          1     -0.23052581                    1_GWF-(1,16215)  2.58974870E-02                    1_GWF-(1,14868)
        102          3          2      0.17173260                    1_GWF-(1,26586) -5.46073827E-02                    1_GWF-(1,14868)
        103          3          3      0.24054824                    1_GWF-(1,26623)  6.22430121E-02                    1_GWF-(1,14868)
        104          3          4      0.17369286                    1_GWF-(1,26649) -4.67111651E-02                    1_GWF-(1,14868)
        105          3          5     -0.18453827                    1_GWF-(1,16130)  6.13000188E-02                    1_GWF-(1,14868)
        106          3          6      0.16073944                    1_GWF-(1,16130) -6.66244746E-02                    1_GWF-(1,14868)
        107          3          7      0.12721050                    1_GWF-(1,26198)  6.61738326E-02                    1_GWF-(1,14868)
        108          3          8     -0.15891465                    1_GWF-(1,26674) -5.12690640E-02                    1_GWF-(1,14868)
        109          3          9      0.13511781                    1_GWF-(1,16130)  5.89802195E-02                    1_GWF-(1,14868)
        110          3         10      0.12750516                    1_GWF-(1,26350) -4.28613846E-02                    1_GWF-(1,14868)
        111          3         11      0.12635136                    1_GWF-(1,26486)  3.69689641E-02                    1_GWF-(1,14868)
        112          3         12     -0.15075133                    1_GWF-(1,26422)  1.84720485E-02                    1_GWF-(1,14869)
        113          3         13     -0.10950975                    1_GWF-(1,26350)  1.28792648E-02                    1_GWF-(1,14868)
        114          3         14      0.13047256                    1_GWF-(1,26350)  4.52110041E-03                    1_GWF-(1,14867)
        115          3         15     -0.12107039                    1_GWF-(1,26350)  1.05903847E-02                    1_GWF-(1,14869)
        116          3         16     -0.12722523                    1_GWF-(1,26422)  2.30388570E-02                    1_GWF-(1,14868)
        117          3         17      0.10203297                    1_GWF-(1,26422)  2.19527212E-02                    1_GWF-(1,14869)
        118          3         18      0.11869197                    1_GWF-(1,26350)  3.54325976E-02                    1_GWF-(1,14868)
        119          3         19 -7.68095574E-02                    1_GWF-(1,26350) -3.76222544E-02                    1_GWF-(1,14868)
        120          3         20  8.64858511E-02                    1_GWF-(1,26420)  4.53456958E-02                    1_GWF-(1,14868)
        121          3         21 -8.30168669E-02                    1_GWF-(1,26420) -3.98838591E-02                    1_GWF-(1,14868)
        122          3         22 -9.32734091E-02                    1_GWF-(1,25297)  4.26345737E-02                    1_GWF-(1,14868)
        123          3         23     -0.11287116                    1_GWF-(1,25444) -3.25271938E-02                    1_GWF-(1,14868)
        124          3         24      0.12597889                    1_GWF-(1,26588)  2.83850178E-02                    1_GWF-(1,14868)
        125          3         25      0.16010954                    1_GWF-(1,26487)  8.91314204E-03                    1_GWF-(1,14869)
        126          3         26      0.19480000                    1_GWF-(1,26420)  9.30543456E-03                    1_GWF-(1,14869)
        127          3         27      0.21661270                    1_GWF-(1,26487)  2.24382751E-02                    1_GWF-(1,14868)
        128          3         28     -0.14015787                    1_GWF-(1,26487) -1.71581387E-02                    1_GWF-(1,14868)
        129          3         29     -0.16779075                    1_GWF-(1,26486)  1.65741108E-02                    1_GWF-(1,14868)
        130          3         30     -0.15413114                    1_GWF-(1,26544)  4.08807690E-03                    1_GWF-(1,14869)
        131          3         31     -0.15185824                    1_GWF-(1,26543)  5.00258400E-03                    1_GWF-(1,14869)
        132          3         32     -0.14924290                    1_GWF-(1,26588)  1.18865335E-02                    1_GWF-(1,14868)
        133          3         33      0.12323849                    1_GWF-(1,26588)  9.33265991E-03                    1_GWF-(1,14869)
        134          3         34  9.48076758E-02                    1_GWF-(1,26543)  1.04981961E-02                    1_GWF-(1,14868)
        135          3         35     -0.11731770                    1_GWF-(1,26665)  3.06185156E-03                    1_GWF-(1,14869)
        136          3         36      0.10806955                    1_GWF-(1,26665)  2.70902639E-03                    1_GWF-(1,14869)
        137          3         37      0.12579816                    1_GWF-(1,26666)  5.80685608E-03                    1_GWF-(1,14868)
        138          3         38      0.12719620                    1_GWF-(1,26622) -4.77786638E-03                    1_GWF-(1,14868)
        139          3         39  9.26011366E-02                    1_GWF-(1,26217)  4.14827444E-03                    1_GWF-(1,14868)
        140          3         40     -0.12803117                    1_GWF-(1,26665)  1.52590638E-03                    1_GWF-(1,14782)
        141          3         41      0.12703457                    1_GWF-(1,26665) -2.78138522E-03                    1_GWF-(1,14868)
        142          3         42     -0.15021827                    1_GWF-(1,26665)  4.85430201E-03                    1_GWF-(1,14868)
        143          3         43     -0.13485380                    1_GWF-(1,26666) -5.05061548E-03                    1_GWF-(1,14868)
        144          3         44      0.12571979                    1_GWF-(1,26543)  5.10519372E-03                    1_GWF-(1,14868)
        145          3         45      0.14582821                    1_GWF-(1,26649)  3.52967953E-03                    1_GWF-(1,14782)
        146          3         46      0.15038694                    1_GWF-(1,26648)  5.34332241E-03                    1_GWF-(1,14867)
        147          3         47  9.03598904E-02                    1_GWF-(1,26664) -4.65811690E-03                    1_GWF-(1,14867)
        148          3         48  9.22385240E-02                    1_GWF-(1,26217)  4.02896903E-03                    1_GWF-(1,14867)
        149          3         49     -0.10467416                    1_GWF-(1,26648) -5.04645194E-03                    1_GWF-(1,14867)
        150          3         50     -0.10374699                    1_GWF-(1,26218)  4.13016733E-03                    1_GWF-(1,14867)
        151          4          1 -6.68809734E-02                    1_GWF-(1,26217) -3.28821208E-03                    1_GWF-(1,14867)
        152          4          2 -6.79199286E-02                    1_GWF-(1,26218)  3.07801253E-03                    1_GWF-(1,14867)
        153          4          3 -7.38475080E-02                    1_GWF-(1,26217)  2.36542862E-03                    1_GWF-(1,14782)
        154          4          4 -7.44743598E-02                    1_GWF-(1,26218)  2.92452748E-03                    1_GWF-(1,14867)
        155          4          5 -5.32426321E-02                    1_GWF-(1,26422)  1.89812403E-03                    1_GWF-(1,14782)
        156          4          6 -4.86297967E-02                    1_GWF-(1,26218)  1.87632364E-03                    1_GWF-(1,14868)
        157          4          7 -3.64197565E-02                    1_GWF-(1,26485) -1.53324943E-03                    1_GWF-(1,14868)
        158          4          8 -4.85241693E-02                    1_GWF-(1,26665)  1.76956423E-03                    1_GWF-(1,14868)
        159          4          9 -5.92065489E-02                    1_GWF-(1,26666) -1.58791270E-03                    1_GWF-(1,14868)
        160          4         10 -5.87838067E-02                    1_GWF-(1,26665) -1.05663171E-03                    1_GWF-(1,14867)
        161          4         11  5.91332805E-02                    1_GWF-(1,26665)  5.59733321E-04                    1_GWF-(1,10962)
        162          4         12  3.64933401E-02                    1_GWF-(1,26622) -1.07978734E-03                    1_GWF-(1,14868)
        163          4         13  3.70363598E-02                    1_GWF-(1,26623)  1.62111020E-03                    1_GWF-(1,14868)
        164          4         14  4.99366536E-02                    1_GWF-(1,26622)  1.16813166E-03                    1_GWF-(1,14869)
        165          4         15  4.29862954E-02                    1_GWF-(1,26623)  7.25549838E-04                    1_GWF-(1,14782)
        166          4         16  3.49175141E-02                    1_GWF-(1,26665)  9.58847218E-04                    1_GWF-(1,14868)
        167          4         17  2.53457360E-02                    1_GWF-(1,26588) -1.25564396E-03                    1_GWF-(1,14868)
        168          4         18  2.06404979E-02                    1_GWF-(1,26543)  1.45875140E-03                    1_GWF-(1,14868)
        169          4         19 -2.35524890E-02                    1_GWF-(1,26543) -1.45325464E-03                    1_GWF-(1,14868)
        170          4         20 -3.24219109E-02                    1_GWF-(1,26588)  6.17858516E-04                    1_GWF-(1,14868)
        171          4         21 -3.16410774E-02                    1_GWF-(1,26543)  9.30189512E-04                    1_GWF-(1,14868)
        172          4         22 -2.32518227E-02                    1_GWF-(1,26588) -1.62203267E-03                    1_GWF-(1,14868)
        173          4         23 -2.97241054E-02                    1_GWF-(1,26486)  2.48778918E-03                    1_GWF-(1,14868)
        174          4         24 -3.40803621E-02                    1_GWF-(1,26487)  1.78306350E-03                    1_GWF-(1,14869)
        175          4         25 -2.91072521E-02                    1_GWF-(1,26420)  8.28463438E-04                    1_GWF-(1,14868)
        176          4         26 -2.48013012E-02                    1_GWF-(1,26487)  1.42053961E-03                    1_GWF-(1,14868)
        177          4         27 -1.81357175E-02                    1_GWF-(1,26420) -2.49835133E-03                    1_GWF-(1,14868)
        178          4         28 -1.23496835E-02                    1_GWF-(1,26421)  3.93555345E-03                    1_GWF-(1,14868)
        179          4         29  1.05622046E-02                    1_GWF-(1,26543) -4.50712599E-03                    1_GWF-(1,14868)
        180          4         30  1.23600506E-02                    1_GWF-(1,26420)  5.07203553E-03                    1_GWF-(1,14868)
        181          4         31  1.80780020E-02                    1_GWF-(1,26422) -4.45807560E-03                    1_GWF-(1,14868)
        182          4         32  1.86043090E-02                    1_GWF-(1,26350)  5.23389980E-03                    1_GWF-(1,14868)
        183          4         33  1.87100383E-02                    1_GWF-(1,26421) -3.66847419E-03                    1_GWF-(1,14868)
        184          4         34  1.84765714E-02                    1_GWF-(1,26350)  3.92314255E-03                    1_GWF-(1,14868)
        185          4         35  1.90486838E-02                    1_GWF-(1,26422) -2.01230154E-03                    1_GWF-(1,14868)
        186          4         36  1.09132303E-02                    1_GWF-(1,26350)  1.70684280E-03                    1_GWF-(1,14867)
        187          4         37 -1.65524327E-02                    1_GWF-(1,26350)  1.46603827E-03                    1_GWF-(1,14782)
        188          4         38 -1.46937847E-02                    1_GWF-(1,26422)  1.90571378E-03                    1_GWF-(1,14867)
        189          4         39 -1.36491544E-02                    1_GWF-(1,26544)  2.05177959E-03                    1_GWF-(1,14868)
        190          4         40 -1.44601083E-02                    1_GWF-(1,26486)  2.08847865E-03                    1_GWF-(1,14869)
        191          4         41 -1.14500595E-02                    1_GWF-(1,26350)  2.90062959E-03                    1_GWF-(1,14868)
        192          4         42 -8.91265927E-03                    1_GWF-(1,26422) -2.55916563E-03                    1_GWF-(1,14868)
        193          4         43 -8.27779947E-03                    1_GWF-(1,26544)  3.14432202E-03                    1_GWF-(1,14868)
        194          4         44 -6.51733526E-03                    1_GWF-(1,26486) -2.68043486E-03                    1_GWF-(1,14868)
        195          4         45 -5.55389063E-03                    1_GWF-(1,16130)  3.03434595E-03                    1_GWF-(1,14868)
        196          4         46  6.03484344E-03                    1_GWF-(1,16130) -2.84627852E-03                    1_GWF-(1,14868)
        197          4         47  7.67539432E-03                    1_GWF-(1,26672)  3.29618266E-03                    1_GWF-(1,14868)
        198          4         48 -5.87361332E-03                    1_GWF-(1,26623) -3.13221663E-03                    1_GWF-(1,14868)
        199          4         49  7.15605007E-03                    1_GWF-(1,16130)  2.31764912E-03                    1_GWF-(1,14868)
        200          4         50  7.23034413E-03                    1_GWF-(1,26326) -2.35343604E-03                    1_GWF-(1,14868)
        201          5          1 -1.26304604E-02                    1_GWF-(1,11437)  1.75537327E-03                    1_GWF-(1,14868)
        202          5          2 -7.62043675E-03                    1_GWF-(1,11442) -2.25751994E-03                    1_GWF-(1,14868)
        203          5          3 -5.11339674E-03                    1_GWF-(1,26673)  2.33591749E-03                    1_GWF-(1,14868)
        204          5          4 -5.32206821E-03                    1_GWF-(1,26672) -2.28855569E-03                    1_GWF-(1,14868)
        205          5          5  4.62656922E-03                    1_GWF-(1,26422)  2.31697295E-03                    1_GWF-(1,14868)
        206          5          6 -3.16300082E-03                    1_GWF-(1,20231) -2.15500772E-03                    1_GWF-(1,14868)
        207          5          7 -4.01502798E-03                    1_GWF-(1,26350)  2.44631350E-03                    1_GWF-(1,14868)
        208          5          8 -5.17525897E-03                    1_GWF-(1,26422) -2.12652657E-03                    1_GWF-(1,14868)
        209          5          9  3.44664534E-03                    1_GWF-(1,26588)  2.23950852E-03                    1_GWF-(1,14868)
        210          5         10  4.71471873E-03                    1_GWF-(1,26350) -1.58508376E-03                    1_GWF-(1,14868)
        211          5         11  6.52192373E-03                    1_GWF-(1,26486)  1.57486146E-03                    1_GWF-(1,14868)
        212          5         12 -6.15317292E-03                    1_GWF-(1,26422)  8.86017263E-04                    1_GWF-(1,14869)
        213          5         13  7.24474604E-03                    1_GWF-(1,26422)  5.81717310E-04                    1_GWF-(1,14782)
        214          5         14 -7.73333735E-03                    1_GWF-(1,26486)  5.40898844E-04                    1_GWF-(1,14868)
        215          5         15 -7.10705112E-03                    1_GWF-(1,26544)  8.06339780E-04                    1_GWF-(1,14869)
        216          5         16 -8.01896205E-03                    1_GWF-(1,26486)  1.16071340E-03                    1_GWF-(1,14868)
        217          5         17 -8.25233436E-03                    1_GWF-(1,26588)  5.96965475E-04                    1_GWF-(1,14867)
        218          5         18 -7.18984772E-03                    1_GWF-(1,26420)  5.44322170E-04                    1_GWF-(1,14869)
        219          5         19 -8.62290275E-03                    1_GWF-(1,26422)  1.41292538E-03                    1_GWF-(1,14868)
        220          5         20 -9.06735046E-03                    1_GWF-(1,26350) -1.69572792E-03                    1_GWF-(1,14868)
        221          5         21 -6.18662893E-03                    1_GWF-(1,26422)  2.32540262E-03                    1_GWF-(1,14868)
        222          5         22 -4.33367096E-03                    1_GWF-(1,25442) -2.28847495E-03                    1_GWF-(1,14868)
        223          5         23 -4.47194430E-03                    1_GWF-(1,25442)  2.29474281E-03                    1_GWF-(1,14868)
        224          5         24  5.79504409E-03                    1_GWF-(1,26486) -1.50750728E-03                    1_GWF-(1,14868)
        225          5         25  5.89613184E-03                    1_GWF-(1,26487)  8.12549512E-04                    1_GWF-(1,14868)
        226          5         26  6.01561845E-03                    1_GWF-(1,26486)  5.67425292E-04                    1_GWF-(1,14868)
        227          5         27 -6.72637002E-03                    1_GWF-(1,26649) -1.12620635E-03                    1_GWF-(1,14868)
        228          5         28  5.51543266E-03                    1_GWF-(1,26420)  1.55508507E-03                    1_GWF-(1,14868)
        229          5         29 -3.53258383E-03                    1_GWF-(1,26649) -1.19536694E-03                    1_GWF-(1,14868)
        230          5         30 -3.86629963E-03                    1_GWF-(1,22718)  1.10266196E-03                    1_GWF-(1,14868)
        231          5         31 -3.28239182E-03                    1_GWF-(1,24664) -6.63827281E-04                    1_GWF-(1,14868)
        232          5         32  3.75485621E-03                    1_GWF-(1,26665)  5.29660143E-04                    1_GWF-(1,14868)
        233          5         33  3.85899498E-03                    1_GWF-(1,26647) -3.33783521E-04                    1_GWF-(1,14867)
        234          5         34  5.33020193E-03                    1_GWF-(1,26622)  5.41724562E-04                    1_GWF-(1,14867)
        235          5         35 -7.38408203E-03                    1_GWF-(1,26665)  3.98638676E-04                    1_GWF-(1,14782)
        236          5         36 -5.62715209E-03                    1_GWF-(1,26666)  3.44183443E-04                    1_GWF-(1,14869)
        237          5         37 -3.91888639E-03                    1_GWF-(1,26622)  4.45436917E-04                    1_GWF-(1,14868)
        238          5         38 -3.72732700E-03                    1_GWF-(1,26589) -3.82698087E-04                    1_GWF-(1,14867)
        239          5         39 -4.95411161E-03                    1_GWF-(1,26588)  6.15854972E-04                    1_GWF-(1,14867)
        240          5         40 -4.29006503E-03                    1_GWF-(1,26589) -6.85624304E-04                    1_GWF-(1,14867)
        241          5         41  5.77636468E-03                    1_GWF-(1,26665)  5.15922400E-04                    1_GWF-(1,14867)
        242          5         42  7.06994253E-03                    1_GWF-(1,26588)  2.14437417E-04                    1_GWF-(1,14868)
        243          5         43  5.99352884E-03                    1_GWF-(1,26589) -4.64474870E-04                    1_GWF-(1,14867)
        244          5         44  4.87024708E-03                    1_GWF-(1,26588)  7.65829788E-04                    1_GWF-(1,14867)
        245          5         45  3.39879989E-03                    1_GWF-(1,26665) -8.82404125E-04                    1_GWF-(1,14867)
        246          5         46  2.69858969E-03                    1_GWF-(1,26666)  9.97227575E-04                    1_GWF-(1,14867)
        247          5         47  2.95124835E-03                    1_GWF-(1,26218) -8.70877178E-04                    1_GWF-(1,14867)
        248          5         48  3.60417080E-03                    1_GWF-(1,26217)  8.52582883E-04                    1_GWF-(1,14867)
        249          5         49  2.85944717E-03                    1_GWF-(1,26218) -7.67311448E-04                    1_GWF-(1,14867)
        250          5         50 -2.38993715E-03                    1_GWF-(1,26218)  6.99252733E-04                    1_GWF-(1,14867)
        251          6          1 -3.01840856E-03                    1_GWF-(1,11249) -5.10063276E-04                    1_GWF-(1,14867)
        252          6          2 -2.61464970E-03                    1_GWF-(1,26218)  6.30084365E-04                    1_GWF-(1,14867)
        253          6          3 -3.32426463E-03                    1_GWF-(1,26217) -5.66216213E-04                    1_GWF-(1,14867)
        254          6          4 -3.32935379E-03                    1_GWF-(1,26218)  5.68946323E-04                    1_GWF-(1,14867)
        255          6          5 -2.66258724E-03                    1_GWF-(1,26422) -4.15788757E-04                    1_GWF-(1,14867)
        256          6          6 -2.18951904E-03                    1_GWF-(1,26218)  3.85875356E-04                    1_GWF-(1,14867)
        257          6          7 -1.94975777E-03                    1_GWF-(1,26486) -1.81400567E-04                    1_GWF-(1,14867)
        258          6          8 -2.61165435E-03                    1_GWF-(1,26665)  1.18720372E-04                    1_GWF-(1,14868)
        259          6          9 -2.83830679E-03                    1_GWF-(1,26588)  2.05593566E-04                    1_GWF-(1,14867)
        260          6         10 -2.38948561E-03                    1_GWF-(1,26665) -2.12098880E-04                    1_GWF-(1,14867)
        261          6         11  1.94218025E-03                    1_GWF-(1,26543)  1.56834907E-04                    1_GWF-(1,14867)
        262          6         12  2.25572549E-03                    1_GWF-(1,26588)  8.03689529E-05                    1_GWF-(1,14869)
        263          6         13  1.76611343E-03                    1_GWF-(1,26589)  1.30081247E-04                    1_GWF-(1,14868)
        264          6         14  1.69709200E-03                    1_GWF-(1,26588)  1.34074324E-04                    1_GWF-(1,14867)
        265          6         15  1.76480650E-03                    1_GWF-(1,26649)  1.53510843E-04                    1_GWF-(1,14782)
        266          6         16  2.12544610E-03                    1_GWF-(1,26665)  1.34320497E-04                    1_GWF-(1,14867)
        267          6         17  1.55602683E-03                    1_GWF-(1,26543)  3.88744334E-05                    1_GWF-(1,14869)
        268          6         18  9.59997412E-04                    1_GWF-(1,26588)  8.65317885E-05                    1_GWF-(1,14868)
        269          6         19  8.74272796E-04                    1_GWF-(1,24661)  1.21718327E-04                    1_GWF-(1,14867)
        270          6         20  9.45370864E-04                    1_GWF-(1,24664)  1.84403322E-04                    1_GWF-(1,14868)
        271          6         21 -9.44579271E-04                    1_GWF-(1,26649)  2.24504904E-04                    1_GWF-(1,14867)
        272          6         22 -1.03207767E-03                    1_GWF-(1,26486)  2.04163216E-04                    1_GWF-(1,14868)
        273          6         23 -1.29520242E-03                    1_GWF-(1,26649)  9.97376467E-05                    1_GWF-(1,14869)
        274          6         24 -1.49507258E-03                    1_GWF-(1,26622)  8.80452251E-05                    1_GWF-(1,14867)
        275          6         25 -1.26256203E-03                    1_GWF-(1,26623)  1.67751072E-04                    1_GWF-(1,14868)
        276          6         26 -8.79282674E-04                    1_GWF-(1,26217)  2.17642552E-04                    1_GWF-(1,14867)
        277          6         27 -9.03039819E-04                    1_GWF-(1,26421)  2.80189298E-04                    1_GWF-(1,14868)
        278          6         28 -8.97008685E-04                    1_GWF-(1,26420) -2.63668973E-04                    1_GWF-(1,14868)
        279          6         29  9.50121818E-04                    1_GWF-(1,26420)  2.65255808E-04                    1_GWF-(1,14868)
        280          6         30  1.04797456E-03                    1_GWF-(1,26422) -1.44237717E-04                    1_GWF-(1,14868)
        281          6         31  1.32930907E-03                    1_GWF-(1,26486)  1.05814140E-04                    1_GWF-(1,14867)
        282          6         32  1.50110936E-03                    1_GWF-(1,26487)  1.73920224E-04                    1_GWF-(1,14868)
        283          6         33  1.25574344E-03                    1_GWF-(1,26486)  1.86070849E-04                    1_GWF-(1,14869)
        284          6         34  8.59268175E-04                    1_GWF-(1,26487)  2.40573416E-04                    1_GWF-(1,14868)
        285          6         35  8.71492802E-04                    1_GWF-(1,26422) -1.47066293E-04                    1_GWF-(1,14868)
        286          6         36 -6.69373051E-04                    1_GWF-(1,26422)  1.49278712E-04                    1_GWF-(1,14868)
        287          6         37 -1.04108113E-03                    1_GWF-(1,26350)  1.13133249E-04                    1_GWF-(1,14782)
        288          6         38 -9.71833755E-04                    1_GWF-(1,26422)  1.54263394E-04                    1_GWF-(1,14867)
        289          6         39 -6.38302020E-04                    1_GWF-(1,26350)  1.11971189E-04                    1_GWF-(1,14782)
        290          6         40 -6.14886676E-04                    1_GWF-(1,26486)  1.08303763E-04                    1_GWF-(1,14867)
        291          6         41 -5.87463363E-04                    1_GWF-(1,26350)  1.59345394E-04                    1_GWF-(1,14868)
        292          6         42 -4.24091801E-04                    1_GWF-(1,26422) -1.65690077E-04                    1_GWF-(1,14868)
        293          6         43  4.38019997E-04                    1_GWF-(1,26422)  2.23424494E-04                    1_GWF-(1,14868)
        294          6         44  4.74157865E-04                    1_GWF-(1,26350) -1.91810834E-04                    1_GWF-(1,14868)
        295          6         45  2.79044712E-04                    1_GWF-(1,26486)  2.22400285E-04                    1_GWF-(1,14868)
        296          6         46 -2.56337067E-04                    1_GWF-(1,25786) -2.08633436E-04                    1_GWF-(1,14868)
        297          6         47 -3.17564118E-04                    1_GWF-(1,25786)  1.93849625E-04                    1_GWF-(1,14868)
        298          6         48 -3.16379792E-04                    1_GWF-(1,25761) -1.63221065E-04                    1_GWF-(1,14868)
        299          6         49 -2.87881788E-04                    1_GWF-(1,25727)  1.30947872E-04                    1_GWF-(1,14868)
        300          6         50  3.43833756E-04                    1_GWF-(1,11437) -1.28107450E-04                    1_GWF-(1,14868)
        301          7          1 -3.43111295E-04                    1_GWF-(1,11437)  1.22879215E-04                    1_GWF-(1,14868)
        302          7          2 -2.54568187E-04                    1_GWF-(1,11442) -1.37998787E-04                    1_GWF-(1,14868)
        303          7          3 -2.27435271E-04                    1_GWF-(1,26323)  1.50028076E-04                    1_GWF-(1,14868)
        304          7          4  2.92264305E-04                    1_GWF-(1,26217) -1.65457924E-04                    1_GWF-(1,14868)
        305          7          5  2.56813139E-04                    1_GWF-(1,26422)  1.77858337E-04                    1_GWF-(1,14868)
        306          7          6 -2.74431823E-04                    1_GWF-(1,26486) -1.63990777E-04                    1_GWF-(1,14868)
        307          7          7 -3.57275441E-04                    1_GWF-(1,26350)  1.82988812E-04                    1_GWF-(1,14868)
        308          7          8 -4.05203360E-04                    1_GWF-(1,26422) -1.37369850E-04                    1_GWF-(1,14868)
        309          7          9  3.00116606E-04                    1_GWF-(1,26588)  1.23093804E-04                    1_GWF-(1,14868)
        310          7         10  2.83350856E-04                    1_GWF-(1,26350)  7.38117784E-05                    1_GWF-(1,14869)
        311          7         11  3.39780845E-04                    1_GWF-(1,26588)  6.59329217E-05                    1_GWF-(1,14782)
        312          7         12 -4.46560279E-04                    1_GWF-(1,26588)  7.07511598E-05                    1_GWF-(1,14867)
        313          7         13  5.83258774E-04                    1_GWF-(1,26588)  5.27339673E-05                    1_GWF-(1,14869)
        314          7         14 -4.90893165E-04                    1_GWF-(1,26588)  7.07811497E-05                    1_GWF-(1,14868)
        315          7         15 -4.51097924E-04                    1_GWF-(1,26543)  7.73654183E-05                    1_GWF-(1,14867)
        316          7         16 -4.08665852E-04                    1_GWF-(1,26544)  6.88719157E-05                    1_GWF-(1,14782)
        317          7         17 -4.48666143E-04                    1_GWF-(1,26486)  7.46703049E-05                    1_GWF-(1,14868)
        318          7         18 -4.46103519E-04                    1_GWF-(1,26487)  7.13911923E-05                    1_GWF-(1,14869)
        319          7         19 -4.31402318E-04                    1_GWF-(1,26588)  7.98368381E-05                    1_GWF-(1,14868)
        320          7         20  4.68830245E-04                    1_GWF-(1,26588)  6.45233711E-05                    1_GWF-(1,14867)
        321          7         21 -4.68877814E-04                    1_GWF-(1,26420) -5.28758198E-05                    1_GWF-(1,14867)
        322          7         22 -4.57634940E-04                    1_GWF-(1,26422)  7.82607856E-05                    1_GWF-(1,14868)
        323          7         23 -3.69583091E-04                    1_GWF-(1,26350) -9.42007061E-05                    1_GWF-(1,14868)
        324          7         24  3.25121140E-04                    1_GWF-(1,26420)  1.07338346E-04                    1_GWF-(1,14868)
        325          7         25  3.95324702E-04                    1_GWF-(1,26486) -8.21634585E-05                    1_GWF-(1,14868)
        326          7         26  3.27098891E-04                    1_GWF-(1,26487)  6.11585765E-05                    1_GWF-(1,14868)
        327          7         27  3.79669301E-04                    1_GWF-(1,26420)  2.78240910E-05                    1_GWF-(1,14867)
        328          7         28  4.29118120E-04                    1_GWF-(1,26487) -5.71748784E-05                    1_GWF-(1,14868)
        329          7         29  3.62503104E-04                    1_GWF-(1,26420)  9.75995566E-05                    1_GWF-(1,14868)
        330          7         30 -3.07881607E-04                    1_GWF-(1,26420) -8.86030466E-05                    1_GWF-(1,14868)
        331          7         31 -2.24866371E-04                    1_GWF-(1,26421)  8.24314558E-05                    1_GWF-(1,14868)
        332          7         32 -2.04778937E-04                    1_GWF-(1,24661) -6.29754166E-05                    1_GWF-(1,14868)
        333          7         33 -2.08060371E-04                    1_GWF-(1,26218)  5.80551254E-05                    1_GWF-(1,14868)
        334          7         34 -1.84143097E-04                    1_GWF-(1,26217)  4.42455482E-05                    1_GWF-(1,14867)
        335          7         35 -2.29302795E-04                    1_GWF-(1,26175)  4.17272942E-05                    1_GWF-(1,14868)
        336          7         36  2.33520142E-04                    1_GWF-(1,26218)  2.40780214E-05                    1_GWF-(1,14869)
        337          7         37 -1.62538038E-04                    1_GWF-(1,26390)  2.52012397E-05                    1_GWF-(1,14868)
        338          7         38  2.26006028E-04                    1_GWF-(1,26674)  1.57800186E-05                    1_GWF-(1,14782)
        339          7         39 -2.44224452E-04                    1_GWF-(1,26588)  3.07324388E-05                    1_GWF-(1,14867)
        340          7         40 -2.88246849E-04                    1_GWF-(1,26666) -3.24638350E-05                    1_GWF-(1,14867)
        341          7         41 -3.47058795E-04                    1_GWF-(1,26665)  2.84539359E-05                    1_GWF-(1,14867)
        342          7         42  3.50006200E-04                    1_GWF-(1,26665)  1.66510118E-05                    1_GWF-(1,14868)
        343          7         43 -3.05512478E-04                    1_GWF-(1,26665)  1.73854092E-05                    1_GWF-(1,14782)
        344          7         44  2.22972710E-04                    1_GWF-(1,26622)  3.66774590E-05                    1_GWF-(1,14867)
        345          7         45  1.78791844E-04                    1_GWF-(1,26543) -3.82139726E-05                    1_GWF-(1,14867)
        346          7         46  1.91531908E-04                    1_GWF-(1,26422)  4.93499469E-05                    1_GWF-(1,14867)
        347          7         47  2.28189817E-04                    1_GWF-(1,26218) -4.60500730E-05                    1_GWF-(1,14867)
        348          7         48  2.57171673E-04                    1_GWF-(1,26217)  4.93201143E-05                    1_GWF-(1,14867)
        349          7         49  1.98720251E-04                    1_GWF-(1,26218) -3.91899701E-05                    1_GWF-(1,14867)
        350          7         50  1.42749617E-04                    1_GWF-(1,26217)  4.61708187E-05                    1_GWF-(1,14867)
        351          8          1 -1.29003019E-04                    1_GWF-(1,26217) -3.69096261E-05                    1_GWF-(1,14867)
        352          8          2 -1.63534053E-04                    1_GWF-(1,26218)  4.24955482E-05                    1_GWF-(1,14867)
        353          8          3 -2.06541700E-04                    1_GWF-(1,26217) -3.74578282E-05                    1_GWF-(1,14867)
        354          8          4 -1.94030541E-04                    1_GWF-(1,26218)  3.81526920E-05                    1_GWF-(1,14867)
        355          8          5 -1.57105946E-04                    1_GWF-(1,26422) -2.78232596E-05                    1_GWF-(1,14867)
        356          8          6 -1.20240692E-04                    1_GWF-(1,26218)  2.49109879E-05                    1_GWF-(1,14867)
        357          8          7 -1.43493492E-04                    1_GWF-(1,26665) -1.15774448E-05                    1_GWF-(1,14867)
        358          8          8  1.49410476E-04                    1_GWF-(1,26665)  7.92659447E-06                    1_GWF-(1,14868)
        359          8          9 -1.90342831E-04                    1_GWF-(1,26665)  1.27194559E-05                    1_GWF-(1,14867)
        360          8         10  1.89741384E-04                    1_GWF-(1,26665) -1.45149179E-05                    1_GWF-(1,14867)
        361          8         11 -1.31834247E-04                    1_GWF-(1,26665)  1.13723580E-05                    1_GWF-(1,14867)
        362          8         12  1.11063421E-04                    1_GWF-(1,26623)  4.21708671E-06                    1_GWF-(1,14869)
        363          8         13  1.21121709E-04                    1_GWF-(1,26622)  6.64797224E-06                    1_GWF-(1,14868)
        364          8         14  1.57589078E-04                    1_GWF-(1,26649)  8.63672645E-06                    1_GWF-(1,14867)
        365          8         15  2.00758341E-04                    1_GWF-(1,26622)  7.39472737E-06                    1_GWF-(1,14782)
        366          8         16  1.33541071E-04                    1_GWF-(1,26649)  6.11383709E-06                    1_GWF-(1,14868)
        367          8         17 -9.34615304E-05                    1_GWF-(1,26649)  5.80851366E-06                    1_GWF-(1,14869)
        368          8         18  6.14309227E-05                    1_GWF-(1,24671)  8.46649408E-06                    1_GWF-(1,14868)
        369          8         19  5.91699975E-05                    1_GWF-(1,24683)  9.77154488E-06                    1_GWF-(1,14867)
        370          8         20 -9.19081211E-05                    1_GWF-(1,26543)  9.57225240E-06                    1_GWF-(1,14868)
        371          8         21 -1.03844822E-04                    1_GWF-(1,26487)  4.09085504E-06                    1_GWF-(1,14867)
        372          8         22 -1.18085240E-04                    1_GWF-(1,26486)  6.17538582E-06                    1_GWF-(1,14867)
        373          8         23 -8.64271575E-05                    1_GWF-(1,26487)  1.06350978E-05                    1_GWF-(1,14868)
        374          8         24 -6.95384412E-05                    1_GWF-(1,26420)  1.31763636E-05                    1_GWF-(1,14867)
        375          8         25 -7.43864398E-05                    1_GWF-(1,26218)  1.52091635E-05                    1_GWF-(1,14868)
        376          8         26 -5.70219527E-05                    1_GWF-(1,26348) -1.53940661E-05                    1_GWF-(1,14868)
        377          8         27 -6.75068138E-05                    1_GWF-(1,26421)  1.84341909E-05                    1_GWF-(1,14868)
        378          8         28 -6.92250637E-05                    1_GWF-(1,26420) -1.46215702E-05                    1_GWF-(1,14868)
        379          8         29  6.98260522E-05                    1_GWF-(1,26588)  9.70214811E-06                    1_GWF-(1,14868)
        380          8         30 -7.99558903E-05                    1_GWF-(1,26588) -5.57994272E-06                    1_GWF-(1,14867)
        381          8         31 -7.77026676E-05                    1_GWF-(1,26589)  9.87749923E-06                    1_GWF-(1,14867)
        382          8         32  6.66876601E-05                    1_GWF-(1,26487)  1.66562215E-05                    1_GWF-(1,14868)
        383          8         33  6.24152010E-05                    1_GWF-(1,26588)  1.30871696E-05                    1_GWF-(1,14869)
        384          8         34  5.00748706E-05                    1_GWF-(1,26350)  1.53986668E-05                    1_GWF-(1,14868)
        385          8         35  4.99717918E-05                    1_GWF-(1,26422) -9.36106965E-06                    1_GWF-(1,14868)
        386          8         36 -5.14747691E-05                    1_GWF-(1,26422)  9.04440366E-06                    1_GWF-(1,14868)
        387          8         37 -7.29099960E-05                    1_GWF-(1,26350)  7.01074234E-06                    1_GWF-(1,14782)
        388          8         38 -6.53658560E-05                    1_GWF-(1,26422)  9.37382343E-06                    1_GWF-(1,14867)
        389          8         39 -3.87388284E-05                    1_GWF-(1,26350)  6.94422911E-06                    1_GWF-(1,14782)
        390          8         40 -3.55401613E-05                    1_GWF-(1,26486)  6.99717160E-06                    1_GWF-(1,14869)
        391          8         41 -3.27849338E-05                    1_GWF-(1,26350)  1.05416607E-05                    1_GWF-(1,14868)
        392          8         42 -2.22503754E-05                    1_GWF-(1,26648) -1.14103344E-05                    1_GWF-(1,14868)
        393          8         43  3.52565318E-05                    1_GWF-(1,26422)  1.49946100E-05                    1_GWF-(1,14868)
        394          8         44  3.44467163E-05                    1_GWF-(1,26350) -1.30354821E-05                    1_GWF-(1,14868)
        395          8         45  1.77128222E-05                    1_GWF-(1,26486)  1.40801323E-05                    1_GWF-(1,14868)
        396          8         46  2.03265508E-05                    1_GWF-(1,26420) -1.27785024E-05                    1_GWF-(1,14868)
        397          8         47 -2.19611432E-05                    1_GWF-(1,26217)  1.09287375E-05                    1_GWF-(1,14868)
        398          8         48 -2.76866517E-05                    1_GWF-(1,26487) -8.05977386E-06                    1_GWF-(1,14868)
        399          8         49 -3.64622374E-05                    1_GWF-(1,26486)  2.92738758E-06                    1_GWF-(1,14867)
        400          8         50 -4.09835792E-05                    1_GWF-(1,26487)  3.81927760E-06                    1_GWF-(1,14868)
        401          9          1  4.83467367E-05                    1_GWF-(1,26487) -3.07632446E-06                    1_GWF-(1,14868)
        402          9          2  4.95382844E-05                    1_GWF-(1,26486)  1.25636004E-06                    1_GWF-(1,10957)
        403          9          3  2.89165900E-05                    1_GWF-(1,26487)  3.39300649E-06                    1_GWF-(1,14868)
        404          9          4  1.83720823E-05                    1_GWF-(1,26217) -7.16167356E-06                    1_GWF-(1,14868)
        405          9          5  1.59178204E-05                    1_GWF-(1,26422)  1.10763574E-05                    1_GWF-(1,14868)
        406          9          6 -2.43681996E-05                    1_GWF-(1,26486) -1.20998250E-05                    1_GWF-(1,14868)
        407          9          7  2.68739484E-05                    1_GWF-(1,26623)  1.12565917E-05                    1_GWF-(1,14868)
        408          9          8  3.05986757E-05                    1_GWF-(1,26622)  2.39381081E-06                    1_GWF-(1,14869)
        409          9          9  4.03791783E-05                    1_GWF-(1,26649) -6.19086473E-06                    1_GWF-(1,14868)
        410          9         10  3.29107029E-05                    1_GWF-(1,26622)  1.25156638E-05                    1_GWF-(1,14868)
        411          9         11  2.34525927E-05                    1_GWF-(1,26420) -1.12462957E-05                    1_GWF-(1,14868)
        412          9         12  1.94000858E-05                    1_GWF-(1,26486)  1.08866249E-05                    1_GWF-(1,14868)
        413          9         13  2.45176305E-05                    1_GWF-(1,26350) -6.41545984E-06                    1_GWF-(1,14868)
        414          9         14  3.42777711E-05                    1_GWF-(1,26422)  5.04902485E-06                    1_GWF-(1,14868)
        415          9         15  2.64945494E-05                    1_GWF-(1,26350)  4.51436568E-06                    1_GWF-(1,14867)
        416          9         16 -2.31925092E-05                    1_GWF-(1,26350)  4.66037572E-06                    1_GWF-(1,14782)
        417          9         17 -3.26009084E-05                    1_GWF-(1,26588)  5.88461147E-06                    1_GWF-(1,14867)
        418          9         18 -3.18544822E-05                    1_GWF-(1,26589)  4.66949854E-06                    1_GWF-(1,14869)
        419          9         19 -3.62175205E-05                    1_GWF-(1,26588)  6.43702888E-06                    1_GWF-(1,14868)
        420          9         20  4.14421774E-05                    1_GWF-(1,26588)  3.40142561E-06                    1_GWF-(1,14869)
        421          9         21  3.42889785E-05                    1_GWF-(1,26589) -3.91398938E-06                    1_GWF-(1,14867)
        422          9         22 -3.08350165E-05                    1_GWF-(1,26422)  4.43579826E-06                    1_GWF-(1,14867)
        423          9         23  2.69517966E-05                    1_GWF-(1,26422) -4.65426903E-06                    1_GWF-(1,14868)
        424          9         24  3.09915372E-05                    1_GWF-(1,26420)  5.96132425E-06                    1_GWF-(1,14868)
        425          9         25  2.50354997E-05                    1_GWF-(1,26422) -4.35013336E-06                    1_GWF-(1,14868)
        426          9         26 -3.03886946E-05                    1_GWF-(1,26665)  3.17345809E-06                    1_GWF-(1,14868)
        427          9         27 -2.83762005E-05                    1_GWF-(1,26666)  3.51105123E-06                    1_GWF-(1,14867)
        428          9         28 -3.03727437E-05                    1_GWF-(1,26665) -2.56421951E-06                    1_GWF-(1,14868)
        429          9         29 -1.91301531E-05                    1_GWF-(1,26663)  5.44902133E-06                    1_GWF-(1,14868)
        430          9         30  2.64522391E-05                    1_GWF-(1,26623) -5.77091908E-06                    1_GWF-(1,14868)
        431          9         31  1.85166281E-05                    1_GWF-(1,26622)  5.66091897E-06                    1_GWF-(1,14868)
        432          9         32 -1.73021428E-05                    1_GWF-(1,26420) -3.53914399E-06                    1_GWF-(1,14868)
        433          9         33  1.75763267E-05                    1_GWF-(1,26622) -1.70988268E-06                    1_GWF-(1,14867)
        434          9         34  2.28218360E-05                    1_GWF-(1,26649)  3.11856344E-06                    1_GWF-(1,14868)
        435          9         35 -2.10639846E-05                    1_GWF-(1,26665) -4.42110022E-06                    1_GWF-(1,14868)
        436          9         36 -2.10464330E-05                    1_GWF-(1,26486)  4.68789013E-06                    1_GWF-(1,14868)
        437          9         37 -1.66446484E-05                    1_GWF-(1,26649)  4.13154755E-06                    1_GWF-(1,14867)
        438          9         38 -1.33073961E-05                    1_GWF-(1,26535)  3.68956979E-06                    1_GWF-(1,14868)
        439          9         39 -1.60220599E-05                    1_GWF-(1,26586)  3.28635654E-06                    1_GWF-(1,14867)
        440          9         40  1.22035984E-05                    1_GWF-(1,26217)  2.50575218E-06                    1_GWF-(1,14868)
        441          9         41 -1.10831557E-05                    1_GWF-(1,26217)  1.96397901E-06                    1_GWF-(1,14867)
        442          9         42 -1.66760012E-05                    1_GWF-(1,26218)  1.69445450E-06                    1_GWF-(1,14868)
        443          9         43  1.62229505E-05                    1_GWF-(1,26649)  8.44847814E-07                    1_GWF-(1,14869)
        444          9         44  2.10247674E-05                    1_GWF-(1,26544)  1.20615682E-06                    1_GWF-(1,14867)
        445          9         45  2.67839854E-05                    1_GWF-(1,26486)  1.04586050E-06                    1_GWF-(1,14782)
        446          9         46  2.13632143E-05                    1_GWF-(1,26487)  8.13342667E-07                    1_GWF-(1,14869)
        447          9         47  1.54757276E-05                    1_GWF-(1,26420)  1.00240414E-06                    1_GWF-(1,14868)
        448          9         48  1.54682122E-05                    1_GWF-(1,26218)  9.25017645E-07                    1_GWF-(1,14782)
        449          9         49  1.55976733E-05                    1_GWF-(1,26217)  1.81651209E-06                    1_GWF-(1,14867)
        450          9         50  9.27344907E-06                    1_GWF-(1,26218)  1.81206828E-06                    1_GWF-(1,14782)
        451         10          1 -1.09381616E-05                    1_GWF-(1,26218)  3.43308315E-06                    1_GWF-(1,14867)
        452         10          2 -1.59621760E-05                    1_GWF-(1,26217) -2.12426863E-06                    1_GWF-(1,14867)
        453         10          3 -1.50885578E-05                    1_GWF-(1,26218)  1.79738630E-06                    1_GWF-(1,14867)
        454         10          4 -1.04443908E-05                    1_GWF-(1,26420)  1.23660303E-06                    1_GWF-(1,14782)
        455         10          5 -1.42822785E-05                    1_GWF-(1,26487)  8.21522512E-07                    1_GWF-(1,14867)
        456         10          6 -1.60691691E-05                    1_GWF-(1,26486)  7.22592407E-07                    1_GWF-(1,14867)
        457         10          7 -1.26784303E-05                    1_GWF-(1,26622) -1.32257404E-06                    1_GWF-(1,14867)
        458         10          8 -9.67927550E-06                    1_GWF-(1,26649)  1.67397407E-06                    1_GWF-(1,14867)
        459         10          9  1.08279472E-05                    1_GWF-(1,26218) -9.21018212E-07                    1_GWF-(1,14867)
        460         10         10 -7.20843196E-06                    1_GWF-(1,26623)  7.53528600E-07                    1_GWF-(1,14868)
        461         10         11  5.23918372E-06                    1_GWF-(1,26487) -6.45888219E-07                    1_GWF-(1,14868)
        462         10         12  6.29600742E-06                    1_GWF-(1,26586)  8.71504409E-07                    1_GWF-(1,14868)
        463         10         13 -8.02979929E-06                    1_GWF-(1,26420)  6.16138630E-07                    1_GWF-(1,14867)
        464         10         14  7.87589331E-06                    1_GWF-(1,26622)  3.89775552E-07                    1_GWF-(1,14782)
        465         10         15  9.71011032E-06                    1_GWF-(1,26649)  5.76949776E-07                    1_GWF-(1,14868)
        466         10         16  7.65311951E-06                    1_GWF-(1,26486)  7.73957789E-07                    1_GWF-(1,14869)
        467         10         17  6.38205157E-06                    1_GWF-(1,26588)  9.98889954E-07                    1_GWF-(1,14868)
        468         10         18  7.92138438E-06                    1_GWF-(1,26543) -6.34468576E-07                    1_GWF-(1,14868)
        469         10         19 -7.69087850E-06                    1_GWF-(1,26543)  1.77526245E-07                    1_GWF-(1,14782)
        470         10         20 -9.35915780E-06                    1_GWF-(1,26588)  6.27353467E-07                    1_GWF-(1,14868)
        471         10         21 -6.52554789E-06                    1_GWF-(1,26586) -9.19749375E-07                    1_GWF-(1,14868)
        472         10         22 -5.01411944E-06                    1_GWF-(1,26588)  1.34950439E-06                    1_GWF-(1,14868)
        473         10         23 -3.16853340E-06                    1_GWF-(1,26420) -1.31170810E-06                    1_GWF-(1,14868)
        474         10         24 -4.21247428E-06                    1_GWF-(1,26421)  1.50780328E-06                    1_GWF-(1,14868)
        475         10         25 -5.89758823E-06                    1_GWF-(1,26350) -1.30293599E-06                    1_GWF-(1,14868)
        476         10         26 -6.42718242E-06                    1_GWF-(1,26422)  1.31963254E-06                    1_GWF-(1,14868)
        477         10         27 -5.31413139E-06                    1_GWF-(1,26350) -9.07027962E-07                    1_GWF-(1,14868)
        478         10         28 -4.64421768E-06                    1_GWF-(1,26422)  7.62426011E-07                    1_GWF-(1,14868)
        479         10         29  5.24880239E-06                    1_GWF-(1,26422) -5.51381710E-07                    1_GWF-(1,14867)
        480         10         30  5.45143860E-06                    1_GWF-(1,26350)  7.72216049E-07                    1_GWF-(1,14867)
        481         10         31  5.83380970E-06                    1_GWF-(1,26422)  6.92356955E-07                    1_GWF-(1,14782)
        482         10         32  4.83782395E-06                    1_GWF-(1,26350)  7.67742320E-07                    1_GWF-(1,14867)
        483         10         33  3.50946212E-06                    1_GWF-(1,26622)  9.19528479E-07                    1_GWF-(1,14868)
        484         10         34  3.88796129E-06                    1_GWF-(1,26623)  6.02493987E-07                    1_GWF-(1,14869)
        485         10         35  4.36844093E-06                    1_GWF-(1,26622)  3.68899856E-07                    1_GWF-(1,14868)
        486         10         36  3.70113198E-06                    1_GWF-(1,26649)  3.87607937E-07                    1_GWF-(1,14868)
        487         10         37 -3.33673619E-06                    1_GWF-(1,26422)  6.27265854E-07                    1_GWF-(1,14869)
        488         10         38  4.00348192E-06                    1_GWF-(1,26665)  9.11264775E-07                    1_GWF-(1,14868)
        489         10         39  3.27802658E-06                    1_GWF-(1,26666)  4.83861644E-07                    1_GWF-(1,14869)
        490         10         40 -2.97336679E-06                    1_GWF-(1,26666)  3.91384493E-07                    1_GWF-(1,14867)
        491         10         41 -2.86694386E-06                    1_GWF-(1,26665)  3.66585177E-07                    1_GWF-(1,14868)
        492         10         42 -2.23086765E-06                    1_GWF-(1,26666) -5.85409150E-07                    1_GWF-(1,14868)
        493         10         43 -2.24918483E-06                    1_GWF-(1,26544)  9.56488298E-07                    1_GWF-(1,14868)
        494         10         44 -2.28299949E-06                    1_GWF-(1,26623) -8.24274459E-07                    1_GWF-(1,14868)
        495         10         45  2.39657020E-06                    1_GWF-(1,26486)  7.58596248E-07                    1_GWF-(1,14868)
        496         10         46  2.93771578E-06                    1_GWF-(1,26487) -3.48962687E-07                    1_GWF-(1,14868)
        497         10         47  2.57608002E-06                    1_GWF-(1,26420)  2.00373277E-07                    1_GWF-(1,14867)
        498         10         48 -3.06943942E-06                    1_GWF-(1,26420)  5.49255843E-07                    1_GWF-(1,14868)
        499         10         49 -2.87433496E-06                    1_GWF-(1,26487) -6.25513924E-07                    1_GWF-(1,14868)
        500         10         50 -1.71973627E-06                    1_GWF-(1,26420)  5.50759786E-07                    1_GWF-(1,14868)
        501         11          1  1.72391441E-06                    1_GWF-(1,26649) -7.95564555E-07                    1_GWF-(1,14868)
        502         11          2  2.17443910E-06                    1_GWF-(1,26487)  4.62611892E-07                    1_GWF-(1,14868)
        503         11          3 -2.08247899E-06                    1_GWF-(1,26648)  1.13436070E-07                    1_GWF-(1,10965)
        504         11          4 -2.13659680E-06                    1_GWF-(1,26649) -4.84976607E-07                    1_GWF-(1,14868)
        505         11          5 -1.78135695E-06                    1_GWF-(1,26487)  7.60549145E-07                    1_GWF-(1,14868)
        506         11          6 -2.14078313E-06                    1_GWF-(1,26486) -8.40914552E-07                    1_GWF-(1,14868)
        507         11          7  1.49502053E-06                    1_GWF-(1,26486)  7.84355672E-07                    1_GWF-(1,14868)
        508         11          8  1.48943545E-06                    1_GWF-(1,26665) -3.16338849E-07                    1_GWF-(1,14868)
        509         11          9  2.26793746E-06                    1_GWF-(1,26588)  2.38257355E-07                    1_GWF-(1,14782)
        510         11         10  1.81983131E-06                    1_GWF-(1,26589)  4.12838581E-07                    1_GWF-(1,14868)
        511         11         11  1.82177722E-06                    1_GWF-(1,26420) -4.45398001E-07                    1_GWF-(1,14868)
        512         11         12  1.75212080E-06                    1_GWF-(1,26487)  6.25043029E-07                    1_GWF-(1,14868)
        513         11         13  1.80529549E-06                    1_GWF-(1,26350) -4.47164758E-07                    1_GWF-(1,14868)
        514         11         14  2.57380188E-06                    1_GWF-(1,26422)  4.04098320E-07                    1_GWF-(1,14868)
        515         11         15 -2.05367926E-06                    1_GWF-(1,26543)  4.43597500E-07                    1_GWF-(1,14867)
        516         11         16 -1.67881836E-06                    1_GWF-(1,26350)  3.06481574E-07                    1_GWF-(1,14782)
        517         11         17 -1.66580751E-06                    1_GWF-(1,26543)  3.93959672E-07                    1_GWF-(1,14868)
        518         11         18 -2.16761954E-06                    1_GWF-(1,26588)  4.19454185E-07                    1_GWF-(1,14869)
        519         11         19  2.01255947E-06                    1_GWF-(1,26665)  5.00147942E-07                    1_GWF-(1,14868)
        520         11         20 -2.23674148E-06                    1_GWF-(1,26422)  4.19244137E-07                    1_GWF-(1,14867)
        521         11         21 -2.26607160E-06                    1_GWF-(1,26420) -3.07950656E-07                    1_GWF-(1,14867)
        522         11         22 -2.30316109E-06                    1_GWF-(1,26487)  2.06761851E-07                    1_GWF-(1,14868)
        523         11         23  2.53580774E-06                    1_GWF-(1,26487)  2.70764251E-07                    1_GWF-(1,14869)
        524         11         24  2.43430379E-06                    1_GWF-(1,26420) -2.62615468E-07                    1_GWF-(1,14867)
        525         11         25  2.08539651E-06                    1_GWF-(1,26487)  3.00249561E-07                    1_GWF-(1,14867)
        526         11         26  2.07102600E-06                    1_GWF-(1,26422)  1.75332315E-07                    1_GWF-(1,14782)
        527         11         27  2.11937568E-06                    1_GWF-(1,26350)  2.84041259E-07                    1_GWF-(1,14868)
        528         11         28  1.81765388E-06                    1_GWF-(1,26422) -3.14158329E-07                    1_GWF-(1,14868)
        529         11         29 -1.57677082E-06                    1_GWF-(1,26622)  3.61692744E-07                    1_GWF-(1,14868)
        530         11         30  2.27930982E-06                    1_GWF-(1,26622)  1.96862866E-07                    1_GWF-(1,14867)
        531         11         31  1.99153822E-06                    1_GWF-(1,26649) -1.10477851E-07                    1_GWF-(1,14868)
        532         11         32 -1.19821400E-06                    1_GWF-(1,26486)  3.28482778E-07                    1_GWF-(1,14868)
        533         11         33  1.24887677E-06                    1_GWF-(1,26665) -3.76979024E-07                    1_GWF-(1,14868)
        534         11         34 -1.30571523E-06                    1_GWF-(1,26422)  4.32530703E-07                    1_GWF-(1,14868)
        535         11         35 -1.04360018E-06                    1_GWF-(1,26544) -3.61731141E-07                    1_GWF-(1,14868)
        536         11         36 -9.11358656E-07                    1_GWF-(1,26486)  3.15940410E-07                    1_GWF-(1,14868)
        537         12          1  5.22025468E-07                    1_GWF-(1,26486) -2.82449245E-07                    1_GWF-(1,14868)
 --------------------------------------------------------------------------------------------------------------------------------------



 MEMORY MANAGER TOTAL STORAGE BY DATA TYPE, IN MEGABYTES
 -------------------------------
                    ALLOCATED   
 DATA TYPE           MEMORY     
 -------------------------------
 Character        4.66090000E-02
 Logical          4.40000000E-05
 Integer          5.2037920     
 Real             11.901376     
 -------------------------------
 Total            17.151821     
 -------------------------------


 
 Run end date and time (yyyy/mm/dd hh:mm:ss): 2022/05/27 18:31:15
 Elapsed run time:  0.591 Seconds
 Normal termination of simulation.
