                                   MODFLOW 6
                U.S. GEOLOGICAL SURVEY MODULAR HYDROLOGIC MODEL
                            VERSION 6.2.2 07/30/2021

   MODFLOW 6 compiled Jul 31 2021 14:22:53 with IFORT compiler (ver. 19.10.3)

This software has been approved for release by the U.S. Geological 
Survey (USGS). Although the software has been subjected to rigorous 
review, the USGS reserves the right to update the software as needed 
pursuant to further analysis and review. No warranty, expressed or 
implied, is made by the USGS or the U.S. Government as to the 
functionality of the software and related material nor shall the 
fact of release constitute any such warranty. Furthermore, the 
software is released on condition that neither the USGS nor the U.S. 
Government shall be held liable for any damages resulting from its 
authorized or unauthorized use. Also refer to the USGS Water 
Resources Software User Rights Notice for complete use, copyright, 
and distribution information.


System command used to initiate simulation:
mf6

MODFLOW was compiled using uniform precision.

Real Variables
  KIND: 8
  TINY (smallest non-zero value):    2.225074-308
  HUGE (largest value):    1.797693+308
  PRECISION: 15
  BIT SIZE: 64

Integer Variables
  KIND: 4
  HUGE (largest value): 2147483647
  BIT SIZE: 32

Long Integer Variables
  KIND: 8
  HUGE (largest value): 9223372036854775807
  BIT SIZE: 64

Logical Variables
  KIND: 4
  BIT SIZE: 32
 

 OPENED mfsim.nam
 FILE TYPE:NAM   UNIT 1001   STATUS:OLD                 
 FORMAT:FORMATTED              ACCESS:SEQUENTIAL          
 ACTION:READ                

 # File generated by Flopy version 3.3.5 on 04/28/2022 at 15:58:37.

 READING SIMULATION OPTIONS
 END OF SIMULATION OPTIONS

 READING SIMULATION TIMING

 OPENED mfsim.tdis
 FILE TYPE:TDIS   UNIT 1002   STATUS:OLD                 
 FORMAT:FORMATTED              ACCESS:SEQUENTIAL          
 ACTION:READ                


 TDIS -- TEMPORAL DISCRETIZATION PACKAGE,
 VERSION 1 : 11/13/2014 - INPUT READ FROM UNIT 1002
 # File generated by Flopy version 3.3.5 on 04/28/2022 at 15:58:37.
 PROCESSING TDIS OPTIONS
    SIMULATION TIME UNIT IS SECONDS
 END OF TDIS OPTIONS
 PROCESSING TDIS DIMENSIONS
    1 STRESS PERIOD(S) IN SIMULATION
 END OF TDIS DIMENSIONS
 PROCESSING TDIS PERIODDATA


 STRESS PERIOD     LENGTH       TIME STEPS     MULTIPLIER FOR DELT
 ----------------------------------------------------------------------------
        1         2.000000          1                    1.000
 END OF TDIS PERIODDATA
 END OF SIMULATION TIMING

 READING SIMULATION MODELS
    GWF6 model ML will be created as model 1
 END OF SIMULATION MODELS

 READING SIMULATION EXCHANGES
 END OF SIMULATION EXCHANGES

 READING SOLUTIONGROUP

 Creating solution: SLN_1           

 OPENED mfsim.ims
 FILE TYPE:IMS   UNIT 1015   STATUS:OLD                 
 FORMAT:FORMATTED              ACCESS:SEQUENTIAL          
 ACTION:READ                

 END OF SIMULATION SOLUTIONGROUP

 IMS -- ITERATIVE MODEL SOLUTION PACKAGE, VERSION 6, 4/28/2017
         INPUT READ FROM UNIT 1015
 # File generated by Flopy version 3.3.5 on 04/28/2022 at 15:58:37.

 PROCESSING IMS OPTIONS
 END OF IMS OPTIONS

 PROCESSING IMS NONLINEAR
 END OF IMS NONLINEAR DATA
 ***UNDER-RELAXATION WILL NOT BE USED***
 
 ***IMS LINEAR SOLVER WILL BE USED***

 IMSLINEAR -- UNSTRUCTURED LINEAR SOLUTION PACKAGE, VERSION 8, 04/28/2017

 PROCESSING LINEAR DATA
 END OF LINEAR DATA
 
 OUTER ITERATION CONVERGENCE CRITERION    (DVCLOSE) =    0.100000E-04
 MAXIMUM NUMBER OF OUTER ITERATIONS        (MXITER) = 100
 SOLVER PRINTOUT INDEX                     (IPRIMS) = 2
 NONLINEAR ITERATION METHOD            (NONLINMETH) = 0
 LINEAR SOLUTION METHOD                   (LINMETH) = 1

       SOLUTION BY THE        CONJUGATE-GRADIENT       METHOD
 ------------------------------------------------------------------
 MAXIMUM OF 100 CALLS OF SOLUTION ROUTINE
 MAXIMUM OF 50 INTERNAL ITERATIONS PER CALL TO SOLUTION ROUTINE
 LINEAR ACCELERATION METHOD            = CG        
 MATRIX PRECONDITIONING TYPE           = INCOMPLETE LU       
 MATRIX SCALING APPROACH               = NO SCALING          
 MATRIX REORDERING APPROACH            = ORIGINAL ORDERING        
 NUMBER OF ORTHOGONALIZATIONS          = 0
 HEAD CHANGE CRITERION FOR CLOSURE     =    0.10000E-05
 RESIDUAL CHANGE CRITERION FOR CLOSURE =    0.10000E-04
 RESIDUAL CONVERGENCE OPTION           = 1
 RESIDUAL CONVERGENCE NORM             = INFINITY NORM S 
 RELAXATION FACTOR                     =    0.00000E+00



 
    Solving:  Stress period:     1    Time step:     1
 
1
                            STRESS PERIOD NO. 1, LENGTH =   2.000000    
                            -----------------------------------------------
                            NUMBER OF TIME STEPS = 1
                            MULTIPLIER FOR DELT =     1.000
                            INITIAL TIME STEP SIZE =   2.000000    

 SLN_1 OUTER ITERATION SUMMARY
 ----------------------------------------------------------------------------------------------------------
                                OUTER      INNER                    STEP   MAXIMUM CHANGE MODEL-(CELLID) OR
 OUTER ITERATION STEP       ITERATION  ITERATION  MAXIMUM CHANGE SUCCESS             MODEL-PACKAGE-(NUMBER)
 ----------------------------------------------------------------------------------------------------------
 Model                              1         50       25.340969                            1_GWF-(1,26519)
 Model                              2         50      -20.381953                            1_GWF-(1,26519)
 Model                              3         50      -1.8257101                            1_GWF-(1,21325)
 Model                              4         50      0.80698481                            1_GWF-(1,21670)
 Model                              5         50     -0.18468890                            1_GWF-(1,21225)
 Model                              6         50  9.45967613E-02                            1_GWF-(1,21478)
 Model                              7         50 -2.27217392E-02                            1_GWF-(1,21300)
 Model                              8         50  1.13847937E-02                            1_GWF-(1,21499)
 Model                              9         50 -2.81546260E-03                            1_GWF-(1,21299)
 Model                             10         50  1.39506787E-03                            1_GWF-(1,21499)
 Model                             11         50 -3.52037520E-04                            1_GWF-(1,21300)
 Model                             12         50  1.74490545E-04                            1_GWF-(1,21478)
 Model                             13         50 -2.94960611E-04                            1_GWF-(1,11459)
 Model                             14         31  2.47481540E-05                            1_GWF-(1,21514)
 Model                             15          1 -8.36639744E-07       *                    1_GWF-(1,11439)
 ----------------------------------------------------------------------------------------------------------


 15 CALLS TO NUMERICAL SOLUTION IN TIME STEP 1 STRESS PERIOD 1
 682 TOTAL ITERATIONS

 SLN_1 INNER ITERATION SUMMARY
 --------------------------------------------------------------------------------------------------------------------------------------
      TOTAL      OUTER      INNER                                                            MAXIMUM                                   
  ITERATION  ITERATION  ITERATION  MAXIMUM CHANGE      MAXIMUM CHANGE MODEL-(CELLID)        RESIDUAL    MAXIMUM RESIDUAL MODEL-(CELLID)
 --------------------------------------------------------------------------------------------------------------------------------------
          1          1          1      -11.761937                    1_GWF-(1,12785)      0.32866572                    1_GWF-(1,11169)
          2          1          2       5.5412771                    1_GWF-(1,26601)     -0.22715891                    1_GWF-(1,11169)
          3          1          3       5.7786274                    1_GWF-(1,26565)     -0.13997782                    1_GWF-(1,11178)
          4          1          4       5.9295402                    1_GWF-(1,26512)      0.16241549                    1_GWF-(1,11178)
          5          1          5       5.6148007                    1_GWF-(1,26611)     -0.12320658                    1_GWF-(1,11180)
          6          1          6       5.9535302                    1_GWF-(1,26649)     -0.11589449                    1_GWF-(1,11157)
          7          1          7       4.8485096                    1_GWF-(1,26622) -6.88293479E-02                    1_GWF-(1,11158)
          8          1          8       3.9316515                    1_GWF-(1,26665) -6.89786953E-02                    1_GWF-(1,11180)
          9          1          9      -3.2741297                    1_GWF-(1,26665)  5.25214450E-02                    1_GWF-(1,11051)
         10          1         10      -2.8664787                    1_GWF-(1,26666) -5.59369464E-02                    1_GWF-(1,11158)
         11          1         11       2.5966206                    1_GWF-(1,26544) -5.93939080E-02                    1_GWF-(1,11180)
         12          1         12      -2.8732663                    1_GWF-(1,26622)  3.98015594E-02                    1_GWF-(1,11058)
         13          1         13      -3.4411249                    1_GWF-(1,26649)  4.34063206E-02                    1_GWF-(1,11180)
         14          1         14      -2.6196667                    1_GWF-(1,26622) -4.11635678E-02                    1_GWF-(1,11180)
         15          1         15      -1.7650640                    1_GWF-(1,26623)  2.85590059E-02                    1_GWF-(1,11026)
         16          1         16       1.4034619                    1_GWF-(1,26623)  4.89318770E-02                    1_GWF-(1,11180)
         17          1         17       1.6660155                    1_GWF-(1,26665) -4.01238439E-02                    1_GWF-(1,11180)
         18          1         18       2.0375177                    1_GWF-(1,26588) -3.41846595E-02                    1_GWF-(1,11194)
         19          1         19      -2.1714214                    1_GWF-(1,26588)  4.00837885E-02                    1_GWF-(1,11180)
         20          1         20      -1.7799216                    1_GWF-(1,26543) -2.49822460E-02                    1_GWF-(1,11104)
         21          1         21      -1.3848623                    1_GWF-(1,26544) -2.96942334E-02                    1_GWF-(1,11194)
         22          1         22      -1.6849717                    1_GWF-(1,26486)  3.22937774E-02                    1_GWF-(1,11180)
         23          1         23      -2.0996386                    1_GWF-(1,26487) -2.61186854E-02                    1_GWF-(1,11106)
         24          1         24      -2.2809779                    1_GWF-(1,26486) -2.97200167E-02                    1_GWF-(1,11194)
         25          1         25       1.9429928                    1_GWF-(1,26420) -3.56264485E-02                    1_GWF-(1,11109)
         26          1         26       2.1292507                    1_GWF-(1,26487)  2.82403037E-02                    1_GWF-(1,11151)
         27          1         27       1.8376363                    1_GWF-(1,26420) -2.80025644E-02                    1_GWF-(1,11101)
         28          1         28       1.2253626                    1_GWF-(1,26487) -3.16818595E-02                    1_GWF-(1,11109)
         29          1         29      0.89465300                    1_GWF-(1,26420)  3.33569975E-02                    1_GWF-(1,11109)
         30          1         30     -0.87900401                    1_GWF-(1,26420)  3.45481310E-02                    1_GWF-(1,11110)
         31          1         31      -1.1981972                    1_GWF-(1,26422)  2.79567589E-02                    1_GWF-(1,11105)
         32          1         32      -1.3191414                    1_GWF-(1,26350)  2.42270122E-02                     1_GWF-(1,5617)
         33          1         33      -1.4321959                    1_GWF-(1,26422)  2.90843385E-02                    1_GWF-(1,11110)
         34          1         34      -1.2169245                    1_GWF-(1,26350)  2.79271727E-02                    1_GWF-(1,11105)
         35          1         35     -0.96389021                    1_GWF-(1,26422) -3.56378623E-02                    1_GWF-(1,11105)
         36          1         36      0.87483613                    1_GWF-(1,20921) -3.99943832E-02                    1_GWF-(1,11114)
         37          1         37     -0.99484108                    1_GWF-(1,25240)  2.78602166E-02                    1_GWF-(1,11114)
         38          1         38      -1.0901608                    1_GWF-(1,25322)  3.25193086E-02                    1_GWF-(1,11103)
         39          1         39      -1.1884244                    1_GWF-(1,25455) -3.65504086E-02                    1_GWF-(1,11096)
         40          1         40      -1.1531833                    1_GWF-(1,20223)  3.76813221E-02                    1_GWF-(1,15107)
         41          1         41      -1.2283515                    1_GWF-(1,21381)  3.89769682E-02                    1_GWF-(1,11093)
         42          1         42      -1.4692477                    1_GWF-(1,21458) -4.27727554E-02                    1_GWF-(1,11093)
         43          1         43      -1.8100571                    1_GWF-(1,21462) -4.82901451E-02                    1_GWF-(1,11094)
         44          1         44      -1.9590497                    1_GWF-(1,21417)  4.93260557E-02                    1_GWF-(1,15107)
         45          1         45      -1.6060683                    1_GWF-(1,21435)  3.56931196E-02                    1_GWF-(1,11091)
         46          1         46      -1.3298553                    1_GWF-(1,20575)  3.16027851E-02                    1_GWF-(1,11093)
         47          1         47      -1.2690507                    1_GWF-(1,20920)  2.91799292E-02                    1_GWF-(1,11094)
         48          1         48      -1.2182765                    1_GWF-(1,26218) -2.60322186E-02                    1_GWF-(1,11094)
         49          1         49      -1.2202505                    1_GWF-(1,26217) -2.43908645E-02                    1_GWF-(1,11091)
         50          1         50      -1.4093015                    1_GWF-(1,26218)  2.02685838E-02                    1_GWF-(1,14801)
         51          2          1      -20.890720                    1_GWF-(1,26519) -8.81095386E-02                    1_GWF-(1,26519)
         52          2          2      -8.0712039                    1_GWF-(1,26569) -3.49976275E-02                    1_GWF-(1,26516)
         53          2          3      -4.1399612                    1_GWF-(1,26637)  2.17741200E-02                    1_GWF-(1,26516)
         54          2          4      -4.0829769                    1_GWF-(1,26665) -1.53252442E-02                    1_GWF-(1,26519)
         55          2          5      -2.7195454                    1_GWF-(1,26648)  1.25482606E-02                    1_GWF-(1,14799)
         56          2          6      -2.0323026                    1_GWF-(1,26586)  1.29313973E-02                    1_GWF-(1,14801)
         57          2          7      -1.8231268                    1_GWF-(1,26543)  1.14735314E-02                    1_GWF-(1,14799)
         58          2          8      -1.6947720                    1_GWF-(1,26486)  1.20723000E-02                    1_GWF-(1,14801)
         59          2          9      -1.4428321                    1_GWF-(1,26487)  1.04729777E-02                    1_GWF-(1,14799)
         60          2         10      -1.4053725                    1_GWF-(1,26218)  1.01810874E-02                    1_GWF-(1,14801)
         61          2         11      -1.4082087                    1_GWF-(1,26422)  9.14376029E-03                    1_GWF-(1,14801)
         62          2         12      -1.1491890                    1_GWF-(1,26217)  8.15152350E-03                    1_GWF-(1,14799)
         63          2         13      -1.0540858                    1_GWF-(1,26218)  8.44028199E-03                    1_GWF-(1,14801)
         64          2         14     -0.68986692                    1_GWF-(1,26649)  7.61275131E-03                    1_GWF-(1,14801)
         65          2         15     -0.63268404                    1_GWF-(1,26622)  7.45462363E-03                    1_GWF-(1,14801)
         66          2         16      0.97266900                    1_GWF-(1,26420)  7.99850657E-03                    1_GWF-(1,14801)
         67          2         17       1.2673921                    1_GWF-(1,26350)  7.44654691E-03                    1_GWF-(1,14799)
         68          2         18      0.97311693                    1_GWF-(1,26217)  7.85839674E-03                    1_GWF-(1,14801)
         69          2         19      0.71015269                    1_GWF-(1,26218)  7.90731950E-03                    1_GWF-(1,14801)
         70          2         20      0.51932735                    1_GWF-(1,26486)  7.53235324E-03                    1_GWF-(1,14799)
         71          2         21      0.83507406                    1_GWF-(1,26588)  8.06488301E-03                    1_GWF-(1,14801)
         72          2         22      0.93056762                    1_GWF-(1,26543)  7.67483302E-03                    1_GWF-(1,14801)
         73          2         23      0.60276781                    1_GWF-(1,25712)  8.00948902E-03                    1_GWF-(1,14801)
         74          2         24     -0.62739034                    1_GWF-(1,26422)  9.17439111E-03                    1_GWF-(1,14801)
         75          2         25     -0.85563749                    1_GWF-(1,26486)  9.22632084E-03                    1_GWF-(1,14799)
         76          2         26     -0.92807150                    1_GWF-(1,26487)  9.89618922E-03                    1_GWF-(1,14801)
         77          2         27     -0.59307973                    1_GWF-(1,26420)  1.01045680E-02                    1_GWF-(1,14801)
         78          2         28      0.32922142                    1_GWF-(1,25453)  9.84731258E-03                    1_GWF-(1,14799)
         79          2         29      0.38695934                    1_GWF-(1,26487)  1.06832517E-02                    1_GWF-(1,14801)
         80          2         30      0.40477577                    1_GWF-(1,26420)  1.02423982E-02                    1_GWF-(1,14799)
         81          2         31      0.34904069                    1_GWF-(1,25266)  1.09242122E-02                    1_GWF-(1,14801)
         82          2         32     -0.32967514                    1_GWF-(1,26157)  1.05466930E-02                    1_GWF-(1,14799)
         83          2         33     -0.30264158                    1_GWF-(1,26150)  1.02994690E-02                    1_GWF-(1,14801)
         84          2         34      0.26318079                    1_GWF-(1,26586)  8.89407320E-03                    1_GWF-(1,14799)
         85          2         35      0.33353760                    1_GWF-(1,26623)  8.20898940E-03                    1_GWF-(1,14801)
         86          2         36      0.27142529                    1_GWF-(1,26649)  6.63518391E-03                    1_GWF-(1,14799)
         87          2         37     -0.32163820                    1_GWF-(1,26350)  6.69558199E-03                    1_GWF-(1,14801)
         88          2         38     -0.30954440                    1_GWF-(1,26422)  6.42006009E-03                    1_GWF-(1,14801)
         89          2         39     -0.34562691                    1_GWF-(1,26649)  6.77309849E-03                    1_GWF-(1,14799)
         90          2         40     -0.38336687                    1_GWF-(1,26422)  7.35044374E-03                    1_GWF-(1,14801)
         91          2         41     -0.27271926                    1_GWF-(1,26420)  7.31368658E-03                    1_GWF-(1,14799)
         92          2         42      0.31094042                    1_GWF-(1,26350)  8.02010663E-03                    1_GWF-(1,14801)
         93          2         43     -0.29267798                    1_GWF-(1,26350)  7.45649076E-03                    1_GWF-(1,14799)
         94          2         44      0.34096168                    1_GWF-(1,21281)  7.74018697E-03                    1_GWF-(1,14801)
         95          2         45      0.40541485                    1_GWF-(1,21264)  6.54903875E-03                    1_GWF-(1,26625)
         96          2         46      0.42784801                    1_GWF-(1,20917)  4.67449454E-03                    1_GWF-(1,14801)
         97          2         47      0.36122503                    1_GWF-(1,20232)  3.53419902E-03                    1_GWF-(1,10342)
         98          2         48     -0.32099873                    1_GWF-(1,26665)  7.69008506E-03                    1_GWF-(1,26625)
         99          2         49     -0.33297334                    1_GWF-(1,21377) -6.48429437E-03                    1_GWF-(1,26625)
        100          2         50     -0.42015847                    1_GWF-(1,21349)  6.43236502E-03                    1_GWF-(1,15109)
        101          3          1      -1.0147921                    1_GWF-(1,16214) -3.95003091E-03                    1_GWF-(1,11460)
        102          3          2     -0.57775912                    1_GWF-(1,16200)  3.61177231E-03                    1_GWF-(1,15109)
        103          3          3     -0.38973644                    1_GWF-(1,16233)  5.04944201E-03                    1_GWF-(1,15108)
        104          3          4     -0.33503117                    1_GWF-(1,16536) -5.03765523E-03                    1_GWF-(1,15108)
        105          3          5     -0.26198692                    1_GWF-(1,21263) -3.77418596E-03                    1_GWF-(1,15109)
        106          3          6     -0.26444318                    1_GWF-(1,21260) -2.99212021E-03                    1_GWF-(1,15108)
        107          3          7      0.24172540                    1_GWF-(1,16538)  2.35302068E-03                    1_GWF-(1,15107)
        108          3          8      0.17629002                    1_GWF-(1,16545)  2.09851694E-03                    1_GWF-(1,11460)
        109          3          9     -0.16324179                    1_GWF-(1,16537)  2.13114699E-03                    1_GWF-(1,14799)
        110          3         10     -0.20550108                    1_GWF-(1,16542)  2.80494536E-03                    1_GWF-(1,14801)
        111          3         11     -0.18804812                    1_GWF-(1,16569)  3.20297167E-03                    1_GWF-(1,14799)
        112          3         12      0.18681829                    1_GWF-(1,26350)  2.87292550E-03                    1_GWF-(1,15108)
        113          3         13      0.21869523                    1_GWF-(1,26422) -2.64816124E-03                    1_GWF-(1,15108)
        114          3         14      0.23472736                    1_GWF-(1,26350)  2.22555696E-03                    1_GWF-(1,15108)
        115          3         15      0.19397838                    1_GWF-(1,26422)  1.65409241E-03                    1_GWF-(1,14801)
        116          3         16     -0.13940697                    1_GWF-(1,26422)  1.61356058E-03                    1_GWF-(1,14799)
        117          3         17     -0.10886788                    1_GWF-(1,26350)  1.82980389E-03                    1_GWF-(1,15021)
        118          3         18      0.14164726                    1_GWF-(1,11573)  2.29954694E-03                    1_GWF-(1,14936)
        119          3         19     -0.11643123                    1_GWF-(1,26586)  3.60635233E-03                    1_GWF-(1,14801)
        120          3         20      0.11604380                    1_GWF-(1,11714)  4.57430531E-03                    1_GWF-(1,14799)
        121          3         21     -0.11509501                    1_GWF-(1,16803)  4.05295378E-03                    1_GWF-(1,14801)
        122          3         22     -0.11620082                    1_GWF-(1,11714)  3.42282088E-03                    1_GWF-(1,14799)
        123          3         23     -0.10716093                    1_GWF-(1,25444)  2.75406141E-03                    1_GWF-(1,15107)
        124          3         24     -0.10721284                    1_GWF-(1,25492)  2.64869074E-03                    1_GWF-(1,14801)
        125          3         25      0.16244924                    1_GWF-(1,26487)  2.33324053E-03                    1_GWF-(1,14801)
        126          3         26      0.19455082                    1_GWF-(1,26420)  1.85257221E-03                    1_GWF-(1,14799)
        127          3         27      0.20498944                    1_GWF-(1,26487)  2.05091411E-03                    1_GWF-(1,15109)
        128          3         28      0.14110993                    1_GWF-(1,26420)  2.70502008E-03                    1_GWF-(1,15107)
        129          3         29     -0.11408630                    1_GWF-(1,25720) -1.99672236E-03                    1_GWF-(1,15107)
        130          3         30     -0.14386698                    1_GWF-(1,26588)  1.85983129E-03                    1_GWF-(1,15107)
        131          3         31     -0.17801330                    1_GWF-(1,26543)  2.06901694E-03                    1_GWF-(1,14801)
        132          3         32     -0.15886971                    1_GWF-(1,26588)  2.06858481E-03                    1_GWF-(1,14799)
        133          3         33     -0.14093436                    1_GWF-(1,26543)  2.80490037E-03                    1_GWF-(1,15107)
        134          3         34     -0.14034373                    1_GWF-(1,26350) -3.26321480E-03                    1_GWF-(1,15107)
        135          3         35     -0.14909571                    1_GWF-(1,21418)  2.85075085E-03                    1_GWF-(1,15107)
        136          3         36     -0.14919762                    1_GWF-(1,21485)  1.59822564E-03                    1_GWF-(1,10342)
        137          3         37      0.14833416                    1_GWF-(1,26666)  1.74818500E-03                    1_GWF-(1,14938)
        138          3         38      0.13674218                    1_GWF-(1,26622)  3.22244578E-03                    1_GWF-(1,15107)
        139          3         39      0.12058054                    1_GWF-(1,26217) -2.33284523E-03                    1_GWF-(1,15107)
        140          3         40     -0.13560692                    1_GWF-(1,26649)  2.36970318E-03                    1_GWF-(1,15107)
        141          3         41     -0.13252095                    1_GWF-(1,26622)  2.30905014E-03                    1_GWF-(1,14801)
        142          3         42     -0.17906198                    1_GWF-(1,26665) -2.84868926E-03                    1_GWF-(1,15107)
        143          3         43     -0.13011588                    1_GWF-(1,26666)  3.23288790E-03                    1_GWF-(1,15107)
        144          3         44     -0.10045732                    1_GWF-(1,26665)  2.16730672E-03                    1_GWF-(1,14938)
        145          3         45      0.10691340                    1_GWF-(1,26588)  3.25600452E-03                    1_GWF-(1,15107)
        146          3         46      0.10682005                    1_GWF-(1,26648)  1.60084107E-03                    1_GWF-(1,14938)
        147          3         47      0.11174038                    1_GWF-(1,26649)  1.67817251E-03                    1_GWF-(1,15109)
        148          3         48     -0.10305230                    1_GWF-(1,26218)  2.15150333E-03                    1_GWF-(1,15108)
        149          3         49 -9.51944661E-02                    1_GWF-(1,26217)  2.78427376E-03                    1_GWF-(1,14801)
        150          3         50     -0.12243018                    1_GWF-(1,26649)  3.85699238E-03                    1_GWF-(1,15107)
        151          4          1 -8.08624350E-02                    1_GWF-(1,10745)  2.73954997E-03                    1_GWF-(1,14938)
        152          4          2 -7.76327994E-02                    1_GWF-(1,26218)  3.22190824E-03                    1_GWF-(1,15107)
        153          4          3 -8.44056784E-02                    1_GWF-(1,26217) -2.18125098E-03                    1_GWF-(1,15107)
        154          4          4 -8.81871841E-02                    1_GWF-(1,26218)  2.34565775E-03                    1_GWF-(1,15107)
        155          4          5 -6.99771196E-02                    1_GWF-(1,26217)  1.38060951E-03                    1_GWF-(1,14938)
        156          4          6 -6.73448432E-02                    1_GWF-(1,26218)  9.24420819E-04                    1_GWF-(1,15107)
        157          4          7  7.85620737E-02                    1_GWF-(1,26665)  8.57013471E-04                    1_GWF-(1,10342)
        158          4          8  6.46983088E-02                    1_GWF-(1,26647)  1.13030857E-03                    1_GWF-(1,14801)
        159          4          9  8.44476939E-02                    1_GWF-(1,26665)  1.19709019E-03                    1_GWF-(1,14801)
        160          4         10 -8.04437457E-02                    1_GWF-(1,26665)  1.19585739E-03                    1_GWF-(1,14799)
        161          4         11  6.20330894E-02                    1_GWF-(1,26649)  7.46709769E-04                    1_GWF-(1,14801)
        162          4         12 -7.07793450E-02                    1_GWF-(1,26649)  1.20762938E-03                    1_GWF-(1,15107)
        163          4         13 -6.88471301E-02                    1_GWF-(1,26622)  1.16851539E-03                    1_GWF-(1,14938)
        164          4         14 -6.02009211E-02                    1_GWF-(1,26666)  1.00673114E-03                    1_GWF-(1,15107)
        165          4         15  5.89071524E-02                    1_GWF-(1,26666)  7.40656760E-04                    1_GWF-(1,10342)
        166          4         16  6.63666000E-02                    1_GWF-(1,21405)  6.68298509E-04                    1_GWF-(1,10342)
        167          4         17  6.35076847E-02                    1_GWF-(1,21405)  1.08172441E-03                    1_GWF-(1,15107)
        168          4         18  5.08962275E-02                    1_GWF-(1,26543)  1.16536514E-03                    1_GWF-(1,14799)
        169          4         19  5.52673408E-02                    1_GWF-(1,26588)  1.25827555E-03                    1_GWF-(1,14801)
        170          4         20  5.44780101E-02                    1_GWF-(1,26543)  1.05632181E-03                    1_GWF-(1,14799)
        171          4         21  4.58314967E-02                    1_GWF-(1,26588)  7.30738457E-04                    1_GWF-(1,14801)
        172          4         22 -4.58173480E-02                    1_GWF-(1,26487)  1.21873632E-03                    1_GWF-(1,15107)
        173          4         23 -4.49410720E-02                    1_GWF-(1,26486)  1.16231277E-03                    1_GWF-(1,14938)
        174          4         24 -4.83403961E-02                    1_GWF-(1,26487)  1.21840036E-03                    1_GWF-(1,15107)
        175          4         25  5.24228771E-02                    1_GWF-(1,26487)  6.08938966E-04                    1_GWF-(1,14799)
        176          4         26  5.58554005E-02                    1_GWF-(1,26420)  7.31146366E-04                    1_GWF-(1,14938)
        177          4         27  4.00584128E-02                    1_GWF-(1,26487)  1.54418597E-03                    1_GWF-(1,15107)
        178          4         28  3.05182109E-02                    1_GWF-(1,11744) -1.30751306E-03                    1_GWF-(1,15107)
        179          4         29  3.56135674E-02                    1_GWF-(1,26623)  2.04082046E-03                    1_GWF-(1,15107)
        180          4         30  3.52056940E-02                    1_GWF-(1,26586)  1.45612992E-03                    1_GWF-(1,14938)
        181          4         31  3.53317218E-02                    1_GWF-(1,26623)  1.78631474E-03                    1_GWF-(1,15107)
        182          4         32  3.18905435E-02                     1_GWF-(1,8442) -1.53194898E-03                    1_GWF-(1,15107)
        183          4         33  2.19757546E-02                     1_GWF-(1,8212)  2.03252294E-03                    1_GWF-(1,15107)
        184          4         34  2.72543493E-02                    1_GWF-(1,26350)  1.10241218E-03                    1_GWF-(1,14938)
        185          4         35  3.32027507E-02                    1_GWF-(1,26422)  8.63713496E-04                    1_GWF-(1,15107)
        186          4         36 -3.53628453E-02                    1_GWF-(1,26422)  6.74736760E-04                    1_GWF-(1,14801)
        187          4         37 -4.38848202E-02                    1_GWF-(1,26350)  8.08595375E-04                    1_GWF-(1,14801)
        188          4         38 -4.72755574E-02                    1_GWF-(1,26422)  1.20524013E-03                    1_GWF-(1,15107)
        189          4         39 -4.88358933E-02                    1_GWF-(1,26350) -1.25236950E-03                    1_GWF-(1,15107)
        190          4         40 -5.03963796E-02                    1_GWF-(1,26422)  1.56496966E-03                    1_GWF-(1,15107)
        191          4         41 -3.81892058E-02                    1_GWF-(1,26350) -9.26339321E-04                    1_GWF-(1,15107)
        192          4         42 -2.82501371E-02                    1_GWF-(1,20575)  1.10602371E-03                    1_GWF-(1,15107)
        193          4         43 -2.31962268E-02                    1_GWF-(1,16545)  4.63804393E-04                    1_GWF-(1,15022)
        194          4         44 -2.71958404E-02                    1_GWF-(1,16538)  4.11404216E-04                    1_GWF-(1,15109)
        195          4         45 -2.77879992E-02                    1_GWF-(1,16237) -3.66855903E-04                    1_GWF-(1,15109)
        196          4         46 -2.27378474E-02                    1_GWF-(1,16230)  5.35273265E-04                    1_GWF-(1,14799)
        197          4         47  3.10308355E-02                    1_GWF-(1,16536)  6.08671902E-04                    1_GWF-(1,14798)
        198          4         48  3.60540802E-02                    1_GWF-(1,16192)  6.72178879E-04                    1_GWF-(1,14799)
        199          4         49  4.21058856E-02                    1_GWF-(1,16200)  1.04814849E-03                    1_GWF-(1,15107)
        200          4         50  3.77347066E-02                    1_GWF-(1,14464) -2.27442984E-03                    1_GWF-(1,15107)
        201          5          1 -5.58226669E-02                    1_GWF-(1,16203)  1.30696727E-03                    1_GWF-(1,15107)
        202          5          2 -2.77379243E-02                    1_GWF-(1,16113) -1.53067141E-03                    1_GWF-(1,15107)
        203          5          3 -2.82714641E-02                    1_GWF-(1,16236)  1.47323304E-03                    1_GWF-(1,15107)
        204          5          4 -2.48169897E-02                    1_GWF-(1,16583) -9.20777750E-04                    1_GWF-(1,15107)
        205          5          5 -2.40715773E-02                    1_GWF-(1,20233)  6.68428818E-04                    1_GWF-(1,15107)
        206          5          6 -1.93853630E-02                    1_GWF-(1,26486) -4.61714219E-04                    1_GWF-(1,15107)
        207          5          7 -1.51777694E-02                    1_GWF-(1,26543)  3.19980117E-04                    1_GWF-(1,14801)
        208          5          8 -1.35374588E-02                    1_GWF-(1,19052)  4.30876147E-04                    1_GWF-(1,14798)
        209          5          9  1.70276869E-02                    1_GWF-(1,26422)  4.30322451E-04                    1_GWF-(1,14938)
        210          5         10  1.83101635E-02                    1_GWF-(1,26350)  8.97848858E-04                    1_GWF-(1,15107)
        211          5         11  1.96857013E-02                    1_GWF-(1,26422) -7.51476161E-04                    1_GWF-(1,15107)
        212          5         12  2.03324828E-02                    1_GWF-(1,26350)  9.64911301E-04                    1_GWF-(1,15107)
        213          5         13  2.33258787E-02                    1_GWF-(1,26422) -6.40983521E-04                    1_GWF-(1,15107)
        214          5         14  2.34263783E-02                    1_GWF-(1,26544)  5.84702050E-04                    1_GWF-(1,15107)
        215          5         15  2.50658840E-02                    1_GWF-(1,26486)  3.69725373E-04                    1_GWF-(1,14798)
        216          5         16  1.96233939E-02                    1_GWF-(1,26649)  3.89682056E-04                    1_GWF-(1,14799)
        217          5         17  1.88042596E-02                    1_GWF-(1,26543)  6.81849003E-04                    1_GWF-(1,15107)
        218          5         18  1.46691282E-02                    1_GWF-(1,26588)  3.24378539E-04                    1_GWF-(1,14801)
        219          5         19 -1.53302462E-02                    1_GWF-(1,26588)  3.03035605E-04                    1_GWF-(1,14799)
        220          5         20 -1.30806672E-02                    1_GWF-(1,26586)  5.73546317E-04                    1_GWF-(1,15107)
        221          5         21 -1.55298767E-02                    1_GWF-(1,26623)  5.89927373E-04                    1_GWF-(1,14938)
        222          5         22 -1.57983836E-02                    1_GWF-(1,25290)  9.58487081E-04                    1_GWF-(1,15107)
        223          5         23 -1.31959425E-02                    1_GWF-(1,26623) -8.36059831E-04                    1_GWF-(1,15107)
        224          5         24 -1.08195835E-02                    1_GWF-(1,26544)  9.50403224E-04                    1_GWF-(1,15107)
        225          5         25 -1.31778872E-02                    1_GWF-(1,26486) -6.62731818E-04                    1_GWF-(1,15107)
        226          5         26 -1.66909771E-02                    1_GWF-(1,26487)  2.81176255E-04                    1_GWF-(1,15107)
        227          5         27  1.70914791E-02                    1_GWF-(1,26622)  4.97953228E-04                    1_GWF-(1,15107)
        228          5         28  1.38337201E-02                    1_GWF-(1,26649) -5.23576195E-04                    1_GWF-(1,15107)
        229          5         29 -1.13529093E-02                    1_GWF-(1,24717)  7.14505607E-04                    1_GWF-(1,15107)
        230          5         30 -1.34638924E-02                    1_GWF-(1,24958) -6.39621879E-04                    1_GWF-(1,15107)
        231          5         31 -1.33630267E-02                    1_GWF-(1,24957)  6.92678052E-04                    1_GWF-(1,15107)
        232          5         32 -1.38378305E-02                    1_GWF-(1,24675) -3.57252034E-04                    1_GWF-(1,15107)
        233          5         33 -1.57331366E-02                    1_GWF-(1,24704)  3.26669679E-04                    1_GWF-(1,15107)
        234          5         34 -1.50890956E-02                    1_GWF-(1,24702)  1.61819304E-04                    1_GWF-(1,10342)
        235          5         35  1.36218667E-02                    1_GWF-(1,26543) -2.48243692E-04                    1_GWF-(1,15107)
        236          5         36  1.66630687E-02                    1_GWF-(1,26588)  3.49572742E-04                    1_GWF-(1,15107)
        237          5         37 -1.51314354E-02                    1_GWF-(1,21420) -3.02322704E-04                    1_GWF-(1,15107)
        238          5         38 -1.46179448E-02                    1_GWF-(1,24313)  3.24193808E-04                    1_GWF-(1,15107)
        239          5         39 -1.21230362E-02                    1_GWF-(1,24618)  1.59019389E-04                    1_GWF-(1,14798)
        240          5         40 -1.57898013E-02                    1_GWF-(1,26665) -2.13330885E-04                    1_GWF-(1,15107)
        241          5         41 -1.44454612E-02                    1_GWF-(1,26666)  2.73448096E-04                    1_GWF-(1,15107)
        242          5         42 -1.47032244E-02                    1_GWF-(1,26665)  2.55607084E-04                    1_GWF-(1,14801)
        243          5         43 -1.02431427E-02                    1_GWF-(1,26666)  1.95061717E-04                    1_GWF-(1,14799)
        244          5         44 -9.80520549E-03                    1_GWF-(1,20153)  1.28945801E-04                    1_GWF-(1,15107)
        245          5         45  1.16071515E-02                    1_GWF-(1,26218)  2.07591701E-04                    1_GWF-(1,14938)
        246          5         46  9.44077431E-03                    1_GWF-(1,26217)  3.99722671E-04                    1_GWF-(1,15107)
        247          5         47 -1.06526717E-02                    1_GWF-(1,26217) -3.81888869E-04                    1_GWF-(1,15107)
        248          5         48 -1.05113756E-02                    1_GWF-(1,26218)  5.30177040E-04                    1_GWF-(1,15107)
        249          5         49  1.05873199E-02                    1_GWF-(1,26218) -4.04041956E-04                    1_GWF-(1,15107)
        250          5         50  1.02756643E-02                    1_GWF-(1,26217)  4.61844128E-04                    1_GWF-(1,15107)
        251          6          1  7.43814008E-03                    1_GWF-(1,26218) -1.03039890E-03                    1_GWF-(1,11459)
        252          6          2  8.01213660E-03                    1_GWF-(1,26217)  5.17327384E-04                    1_GWF-(1,15107)
        253          6          3  1.19472121E-02                    1_GWF-(1,26218)  1.14086669E-03                    1_GWF-(1,11459)
        254          6          4 -1.02594789E-02                    1_GWF-(1,26218) -7.58944071E-04                    1_GWF-(1,11459)
        255          6          5  8.34573615E-03                    1_GWF-(1,21678)  1.68835358E-04                    1_GWF-(1,11459)
        256          6          6 -9.33004458E-03                    1_GWF-(1,26218)  3.89922787E-04                    1_GWF-(1,11459)
        257          6          7  7.60770606E-03                    1_GWF-(1,21671) -4.77323040E-04                    1_GWF-(1,11459)
        258          6          8  7.28478304E-03                    1_GWF-(1,21666)  2.15785569E-04                    1_GWF-(1,11459)
        259          6          9  9.25000240E-03                    1_GWF-(1,26665)  2.08259052E-04                    1_GWF-(1,15107)
        260          6         10  9.27897852E-03                    1_GWF-(1,26666) -2.92696901E-04                    1_GWF-(1,11459)
        261          6         11  9.18950605E-03                    1_GWF-(1,26665)  1.00076041E-04                    1_GWF-(1,14799)
        262          6         12  7.54321739E-03                    1_GWF-(1,24619)  1.97353082E-04                    1_GWF-(1,15107)
        263          6         13  8.25141824E-03                    1_GWF-(1,24313) -2.33039673E-04                    1_GWF-(1,11459)
        264          6         14  8.01566383E-03                    1_GWF-(1,21421)  2.27337940E-04                    1_GWF-(1,15107)
        265          6         15 -7.58266925E-03                    1_GWF-(1,26588) -1.48378387E-04                    1_GWF-(1,15107)
        266          6         16  6.50019966E-03                    1_GWF-(1,21413) -1.59607530E-04                    1_GWF-(1,11459)
        267          6         17  7.03563599E-03                    1_GWF-(1,21305)  1.67101151E-04                    1_GWF-(1,15107)
        268          6         18  6.11263673E-03                    1_GWF-(1,24704) -1.92854555E-04                    1_GWF-(1,15107)
        269          6         19  5.46786817E-03                    1_GWF-(1,24673)  3.18468941E-04                    1_GWF-(1,15107)
        270          6         20  5.42944867E-03                    1_GWF-(1,25036) -2.58908037E-04                    1_GWF-(1,15107)
        271          6         21  5.24495801E-03                    1_GWF-(1,24958)  2.93393644E-04                    1_GWF-(1,15107)
        272          6         22  4.20950533E-03                    1_GWF-(1,24961) -2.37013132E-04                    1_GWF-(1,15107)
        273          6         23  4.08612230E-03                    1_GWF-(1,26487)  1.95215160E-04                    1_GWF-(1,15107)
        274          6         24  5.94846956E-03                    1_GWF-(1,26486)  8.29241361E-05                    1_GWF-(1,15107)
        275          6         25  7.13427250E-03                    1_GWF-(1,26487) -1.91708012E-04                    1_GWF-(1,15107)
        276          6         26  5.27707645E-03                    1_GWF-(1,26486)  2.84827138E-04                    1_GWF-(1,15107)
        277          6         27  3.92183238E-03                    1_GWF-(1,26544) -2.49162851E-04                    1_GWF-(1,15107)
        278          6         28  3.83850620E-03                    1_GWF-(1,26486)  2.99911235E-04                    1_GWF-(1,15107)
        279          6         29  4.50643035E-03                    1_GWF-(1,26649)  1.40756220E-04                    1_GWF-(1,14938)
        280          6         30  5.31284353E-03                    1_GWF-(1,26648)  9.52648159E-05                    1_GWF-(1,15107)
        281          6         31  6.42794298E-03                    1_GWF-(1,26649)  7.65715500E-05                    1_GWF-(1,14798)
        282          6         32  5.39039970E-03                    1_GWF-(1,26622) -1.09193912E-04                    1_GWF-(1,15107)
        283          6         33 -4.49612686E-03                    1_GWF-(1,26622)  1.55375462E-04                    1_GWF-(1,15107)
        284          6         34 -4.47301742E-03                    1_GWF-(1,26623)  8.88694358E-05                    1_GWF-(1,14799)
        285          6         35 -4.15751068E-03                    1_GWF-(1,26586)  5.49614097E-05                    1_GWF-(1,14798)
        286          6         36 -4.51482997E-03                    1_GWF-(1,26623)  1.15033825E-04                    1_GWF-(1,15107)
        287          6         37 -4.83971954E-03                    1_GWF-(1,26350) -1.09300694E-04                    1_GWF-(1,15107)
        288          6         38 -5.14723520E-03                    1_GWF-(1,26422)  1.87699736E-04                    1_GWF-(1,15107)
        289          6         39 -4.45937861E-03                    1_GWF-(1,26350) -1.34232794E-04                    1_GWF-(1,15107)
        290          6         40 -4.38850356E-03                    1_GWF-(1,26422)  1.45177920E-04                    1_GWF-(1,15107)
        291          6         41 -3.79689718E-03                    1_GWF-(1,26350)  6.10147490E-05                    1_GWF-(1,14799)
        292          6         42 -3.50449333E-03                    1_GWF-(1,20572)  5.53034381E-05                    1_GWF-(1,14801)
        293          6         43 -3.46030947E-03                    1_GWF-(1,11460)  5.15135343E-05                    1_GWF-(1,14801)
        294          6         44 -2.30424102E-03                    1_GWF-(1,16540) -7.31539445E-05                    1_GWF-(1,15107)
        295          6         45  2.75638320E-03                    1_GWF-(1,26486)  1.19577501E-04                    1_GWF-(1,15107)
        296          6         46 -2.79227571E-03                    1_GWF-(1,11460) -1.76393027E-04                    1_GWF-(1,15107)
        297          6         47  3.42052113E-03                    1_GWF-(1,16538)  2.01268029E-04                    1_GWF-(1,15107)
        298          6         48  3.86809707E-03                    1_GWF-(1,16194) -1.60182981E-04                    1_GWF-(1,15107)
        299          6         49  3.82627935E-03                    1_GWF-(1,16113)  1.80865113E-04                    1_GWF-(1,15107)
        300          6         50  2.81691426E-03                    1_GWF-(1,16114) -2.48610224E-04                    1_GWF-(1,15107)
        301          7          1 -3.24336615E-03                    1_GWF-(1,16114)  1.68721373E-04                    1_GWF-(1,15107)
        302          7          2 -3.50418909E-03                    1_GWF-(1,16229) -1.36489895E-04                    1_GWF-(1,15107)
        303          7          3 -3.66297423E-03                    1_GWF-(1,16236)  1.56774219E-04                    1_GWF-(1,15107)
        304          7          4 -2.99566030E-03                    1_GWF-(1,16538) -1.09670799E-04                    1_GWF-(1,15107)
        305          7          5 -2.83281566E-03                    1_GWF-(1,20233)  6.87557170E-05                    1_GWF-(1,15107)
        306          7          6 -2.37091304E-03                    1_GWF-(1,20228) -3.81902689E-05                    1_GWF-(1,15107)
        307          7          7  1.62434196E-03                    1_GWF-(1,16540)  3.91733374E-05                    1_GWF-(1,14799)
        308          7          8  1.81825720E-03                    1_GWF-(1,11460)  4.94205187E-05                    1_GWF-(1,15107)
        309          7          9  2.17650582E-03                    1_GWF-(1,20572) -5.12186910E-05                    1_GWF-(1,15107)
        310          7         10  2.36107386E-03                    1_GWF-(1,26350)  1.15396278E-04                    1_GWF-(1,15107)
        311          7         11  2.59113643E-03                    1_GWF-(1,26422)  9.11247309E-05                    1_GWF-(1,14938)
        312          7         12  2.59737612E-03                    1_GWF-(1,26350)  1.11103474E-04                    1_GWF-(1,15107)
        313          7         13  2.95159803E-03                    1_GWF-(1,26422) -6.14501744E-05                    1_GWF-(1,15107)
        314          7         14  2.69149184E-03                    1_GWF-(1,26350)  6.00558689E-05                    1_GWF-(1,15107)
        315          7         15  2.25530475E-03                    1_GWF-(1,26623)  3.72870989E-05                    1_GWF-(1,14798)
        316          7         16 -2.02961817E-03                    1_GWF-(1,20221)  5.00225798E-05                    1_GWF-(1,14799)
        317          7         17  1.81769821E-03                    1_GWF-(1,26623)  8.51246987E-05                    1_GWF-(1,15107)
        318          7         18 -2.24135405E-03                    1_GWF-(1,26623) -5.83482508E-05                    1_GWF-(1,15107)
        319          7         19 -2.44500755E-03                    1_GWF-(1,26622)  2.59820426E-05                    1_GWF-(1,14798)
        320          7         20 -2.76847731E-03                    1_GWF-(1,26649)  4.17007328E-05                    1_GWF-(1,15107)
        321          7         21 -2.22865781E-03                    1_GWF-(1,26622)  5.96547463E-05                    1_GWF-(1,14938)
        322          7         22 -1.96453566E-03                    1_GWF-(1,26649)  1.13284431E-04                    1_GWF-(1,15107)
        323          7         23 -1.79360571E-03                    1_GWF-(1,26486) -7.92957327E-05                    1_GWF-(1,15107)
        324          7         24 -1.89288066E-03                    1_GWF-(1,26487)  6.12604327E-05                    1_GWF-(1,15107)
        325          7         25 -2.49876648E-03                    1_GWF-(1,26420)  2.73284426E-05                    1_GWF-(1,14801)
        326          7         26 -2.59752392E-03                    1_GWF-(1,26487) -4.72844303E-05                    1_GWF-(1,15107)
        327          7         27 -2.08290012E-03                    1_GWF-(1,26420)  9.47784728E-05                    1_GWF-(1,15107)
        328          7         28 -1.42129815E-03                    1_GWF-(1,25114) -6.82817548E-05                    1_GWF-(1,15107)
        329          7         29 -1.45105767E-03                    1_GWF-(1,24429)  5.59156429E-05                    1_GWF-(1,15107)
        330          7         30 -1.53825543E-03                    1_GWF-(1,24961)  2.17877670E-05                    1_GWF-(1,14831)
        331          7         31  1.52481740E-03                    1_GWF-(1,26588)  4.02601554E-05                    1_GWF-(1,14938)
        332          7         32  1.55563988E-03                    1_GWF-(1,26543)  8.37621428E-05                    1_GWF-(1,15107)
        333          7         33 -1.83825636E-03                    1_GWF-(1,24703) -6.06044153E-05                    1_GWF-(1,15107)
        334          7         34 -1.88004455E-03                    1_GWF-(1,24701)  8.09829215E-05                    1_GWF-(1,15107)
        335          7         35 -1.53938291E-03                    1_GWF-(1,24689) -4.91527742E-05                    1_GWF-(1,15107)
        336          7         36 -1.71054651E-03                    1_GWF-(1,21424)  4.24503484E-05                    1_GWF-(1,15107)
        337          7         37 -1.79677772E-03                    1_GWF-(1,21420) -3.62088577E-05                    1_GWF-(1,11459)
        338          7         38 -1.73897341E-03                    1_GWF-(1,24313)  2.31600426E-05                    1_GWF-(1,11459)
        339          7         39 -1.41030305E-03                    1_GWF-(1,24590)  1.59662127E-05                    1_GWF-(1,15107)
        340          7         40 -1.57768334E-03                    1_GWF-(1,26665) -3.50149129E-05                    1_GWF-(1,11459)
        341          7         41 -1.69396354E-03                    1_GWF-(1,26666)  2.86411269E-05                    1_GWF-(1,15107)
        342          7         42 -1.84095291E-03                    1_GWF-(1,26665)  2.51779089E-05                    1_GWF-(1,14799)
        343          7         43 -1.33217881E-03                    1_GWF-(1,26666) -4.34317441E-05                    1_GWF-(1,11459)
        344          7         44  1.08871767E-03                    1_GWF-(1,26217)  3.17111694E-05                    1_GWF-(1,11459)
        345          7         45  1.44636090E-03                    1_GWF-(1,26218)  2.58030576E-05                    1_GWF-(1,14938)
        346          7         46  1.25756075E-03                    1_GWF-(1,26217)  5.61441038E-05                    1_GWF-(1,15107)
        347          7         47  1.40936528E-03                    1_GWF-(1,26218) -5.39537896E-05                    1_GWF-(1,15107)
        348          7         48 -1.33797326E-03                    1_GWF-(1,26218)  6.76583732E-05                    1_GWF-(1,15107)
        349          7         49  1.23846100E-03                    1_GWF-(1,26218) -4.16195199E-05                    1_GWF-(1,15107)
        350          7         50  1.16936735E-03                    1_GWF-(1,26217)  5.57944628E-05                    1_GWF-(1,11459)
        351          8          1  1.08477611E-03                    1_GWF-(1,26218) -3.72690015E-05                    1_GWF-(1,15107)
        352          8          2 -1.13868768E-03                    1_GWF-(1,26218)  4.90729329E-05                    1_GWF-(1,15107)
        353          8          3 -1.16103530E-03                    1_GWF-(1,26217)  5.02863115E-05                    1_GWF-(1,11459)
        354          8          4 -1.17248590E-03                    1_GWF-(1,26218) -4.21761802E-05                    1_GWF-(1,11459)
        355          8          5 -1.00846751E-03                    1_GWF-(1,26217)  1.38455064E-05                    1_GWF-(1,14938)
        356          8          6 -1.07023690E-03                    1_GWF-(1,26218)  2.88652155E-05                    1_GWF-(1,11459)
        357          8          7  9.19598034E-04                    1_GWF-(1,21672) -3.55122988E-05                    1_GWF-(1,11459)
        358          8          8  9.03931092E-04                    1_GWF-(1,20931)  1.57578973E-05                    1_GWF-(1,14799)
        359          8          9  1.10821043E-03                    1_GWF-(1,26665)  2.06019344E-05                    1_GWF-(1,15107)
        360          8         10  1.02443780E-03                    1_GWF-(1,26666) -2.60417494E-05                    1_GWF-(1,11459)
        361          8         11  9.23171389E-04                    1_GWF-(1,26665)  8.17050005E-06                    1_GWF-(1,14798)
        362          8         12  9.55337334E-04                    1_GWF-(1,24319)  2.00235427E-05                    1_GWF-(1,15107)
        363          8         13  1.07708519E-03                    1_GWF-(1,24313) -2.47097382E-05                    1_GWF-(1,11459)
        364          8         14  9.92695548E-04                    1_GWF-(1,21419)  3.00038891E-05                    1_GWF-(1,15107)
        365          8         15  8.99925485E-04                    1_GWF-(1,21424) -2.87771412E-05                    1_GWF-(1,15107)
        366          8         16  7.68117285E-04                    1_GWF-(1,21416)  3.74191522E-05                    1_GWF-(1,15107)
        367          8         17  7.85590721E-04                    1_GWF-(1,24700)  1.71808773E-05                    1_GWF-(1,14938)
        368          8         18  7.39942624E-04                    1_GWF-(1,26649)  1.71093297E-05                    1_GWF-(1,14799)
        369          8         19  7.27562262E-04                    1_GWF-(1,26622)  2.87570986E-05                    1_GWF-(1,15107)
        370          8         20  6.20022335E-04                    1_GWF-(1,25036) -2.86441703E-05                    1_GWF-(1,15107)
        371          8         21  6.49280808E-04                    1_GWF-(1,24958)  3.15810518E-05                    1_GWF-(1,15107)
        372          8         22  5.65476950E-04                    1_GWF-(1,24961) -2.67718552E-05                    1_GWF-(1,15107)
        373          8         23  5.08904224E-04                    1_GWF-(1,25114)  3.03877823E-05                    1_GWF-(1,15107)
        374          8         24 -6.02211671E-04                    1_GWF-(1,26543)  1.01060278E-05                    1_GWF-(1,14799)
        375          8         25 -7.26741470E-04                    1_GWF-(1,26588) -1.20996325E-05                    1_GWF-(1,11459)
        376          8         26  6.70721365E-04                    1_GWF-(1,26588)  2.46087594E-05                    1_GWF-(1,15107)
        377          8         27  5.49994323E-04                    1_GWF-(1,26543) -2.30197312E-05                    1_GWF-(1,15107)
        378          8         28  5.99719678E-04                    1_GWF-(1,26588)  2.99929200E-05                    1_GWF-(1,15107)
        379          8         29  6.31978815E-04                    1_GWF-(1,26649)  1.33316517E-05                    1_GWF-(1,14938)
        380          8         30  5.81910652E-04                    1_GWF-(1,26487)  8.09878025E-06                    1_GWF-(1,14798)
        381          8         31  6.01689728E-04                    1_GWF-(1,26420) -1.06577103E-05                    1_GWF-(1,11459)
        382          8         32  6.00407528E-04                    1_GWF-(1,26487) -1.45346166E-05                    1_GWF-(1,15107)
        383          8         33 -4.94177248E-04                    1_GWF-(1,26487)  1.59758794E-05                    1_GWF-(1,15107)
        384          8         34 -5.81238669E-04                    1_GWF-(1,26486)  1.05725202E-05                    1_GWF-(1,14799)
        385          8         35 -5.07775351E-04                    1_GWF-(1,26544)  7.35876575E-06                    1_GWF-(1,14801)
        386          8         36 -6.22376366E-04                    1_GWF-(1,26486)  1.22838887E-05                    1_GWF-(1,15107)
        387          8         37 -5.94633686E-04                    1_GWF-(1,26350)  1.14435653E-05                    1_GWF-(1,15022)
        388          8         38 -6.45404134E-04                    1_GWF-(1,26422)  2.04558486E-05                    1_GWF-(1,15107)
        389          8         39 -5.66607282E-04                    1_GWF-(1,26350)  1.42003505E-05                    1_GWF-(1,14938)
        390          8         40 -5.17226909E-04                    1_GWF-(1,26422)  1.51736720E-05                    1_GWF-(1,15107)
        391          8         41 -4.81574863E-04                    1_GWF-(1,20584)  6.17873613E-06                    1_GWF-(1,14938)
        392          8         42 -4.06605482E-04                    1_GWF-(1,20572)  6.96377529E-06                    1_GWF-(1,14801)
        393          8         43 -2.67959331E-04                    1_GWF-(1,20227) -8.98929617E-06                    1_GWF-(1,11459)
        394          8         44 -2.65195634E-04                    1_GWF-(1,16540)  8.58639534E-06                    1_GWF-(1,11459)
        395          8         45  3.30376833E-04                    1_GWF-(1,26486)  1.34639014E-05                    1_GWF-(1,15107)
        396          8         46  3.42462117E-04                    1_GWF-(1,26350) -1.86319022E-05                    1_GWF-(1,15107)
        397          8         47  4.09803128E-04                    1_GWF-(1,16537)  2.10193524E-05                    1_GWF-(1,15107)
        398          8         48  4.60981840E-04                    1_GWF-(1,16236) -1.72210462E-05                    1_GWF-(1,15107)
        399          8         49  4.45280993E-04                    1_GWF-(1,16113)  2.13762411E-05                    1_GWF-(1,15107)
        400          8         50  3.18563476E-04                    1_GWF-(1,16126) -2.61877086E-05                    1_GWF-(1,15107)
        401          9          1 -3.65833869E-04                    1_GWF-(1,16114)  2.02559465E-05                    1_GWF-(1,15107)
        402          9          2 -4.08818081E-04                    1_GWF-(1,16230)  1.44096919E-05                    1_GWF-(1,14938)
        403          9          3 -4.33947086E-04                    1_GWF-(1,16236)  1.62954824E-05                    1_GWF-(1,15107)
        404          9          4 -3.57781842E-04                    1_GWF-(1,20576) -1.14988795E-05                    1_GWF-(1,15107)
        405          9          5 -3.27003162E-04                    1_GWF-(1,20233)  7.53623616E-06                    1_GWF-(1,15107)
        406          9          6 -2.87038449E-04                    1_GWF-(1,20228)  5.04870146E-06                    1_GWF-(1,11459)
        407          9          7 -2.72773554E-04                    1_GWF-(1,26543) -7.30543372E-06                    1_GWF-(1,11459)
        408          9          8 -2.82593948E-04                    1_GWF-(1,26588)  6.80413062E-06                    1_GWF-(1,15107)
        409          9          9 -3.24713382E-04                    1_GWF-(1,26622)  5.08588288E-06                    1_GWF-(1,11459)
        410          9         10 -3.08347641E-04                    1_GWF-(1,26623) -6.47792766E-06                    1_GWF-(1,11459)
        411          9         11  2.85904598E-04                    1_GWF-(1,26623)  6.55103815E-06                    1_GWF-(1,15107)
        412          9         12  2.78501239E-04                    1_GWF-(1,26486)  7.07414556E-06                    1_GWF-(1,11459)
        413          9         13  2.66276554E-04                    1_GWF-(1,26544)  1.21154269E-05                    1_GWF-(1,15107)
        414          9         14  2.91048699E-04                    1_GWF-(1,26422)  8.69682473E-06                    1_GWF-(1,14938)
        415          9         15  2.69644204E-04                    1_GWF-(1,26350)  1.09324736E-05                    1_GWF-(1,15107)
        416          9         16  2.82149421E-04                    1_GWF-(1,26422) -7.51382275E-06                    1_GWF-(1,15107)
        417          9         17  2.61077293E-04                    1_GWF-(1,26350)  4.72013663E-06                    1_GWF-(1,15107)
        418          9         18  2.40827373E-04                    1_GWF-(1,26422)  4.76054508E-06                    1_GWF-(1,14801)
        419          9         19 -2.22751321E-04                     1_GWF-(1,8021) -7.01549809E-06                    1_GWF-(1,11459)
        420          9         20 -2.64429129E-04                    1_GWF-(1,26649)  7.82059190E-06                    1_GWF-(1,15107)
        421          9         21 -2.77172850E-04                    1_GWF-(1,26622)  6.33844803E-06                    1_GWF-(1,14938)
        422          9         22 -3.16867199E-04                    1_GWF-(1,26649) -6.12731748E-06                    1_GWF-(1,11459)
        423          9         23 -2.75800028E-04                    1_GWF-(1,26622)  3.78405816E-06                    1_GWF-(1,15107)
        424          9         24 -2.60675575E-04                    1_GWF-(1,26486)  5.86411001E-06                    1_GWF-(1,14938)
        425          9         25  1.80344554E-04                     1_GWF-(1,8335)  9.80617449E-06                    1_GWF-(1,15107)
        426          9         26  2.30807464E-04                     1_GWF-(1,8339) -6.67602429E-06                    1_GWF-(1,15107)
        427          9         27 -1.94794173E-04                    1_GWF-(1,26487)  6.15259203E-06                    1_GWF-(1,15107)
        428          9         28 -2.00944586E-04                    1_GWF-(1,26420)  4.63876084E-06                    1_GWF-(1,14801)
        429          9         29  2.02685530E-04                    1_GWF-(1,26420) -5.69593358E-06                    1_GWF-(1,15107)
        430          9         30 -1.98541189E-04                    1_GWF-(1,24961)  7.89545049E-06                    1_GWF-(1,15107)
        431          9         31 -1.85120411E-04                    1_GWF-(1,24957) -7.08028728E-06                    1_GWF-(1,15107)
        432          9         32 -1.90943002E-04                    1_GWF-(1,24673)  7.97846422E-06                    1_GWF-(1,15107)
        433          9         33 -2.10277276E-04                    1_GWF-(1,24678)  4.76159732E-06                    1_GWF-(1,11459)
        434          9         34  2.41399317E-04                    1_GWF-(1,26665) -4.40732883E-06                    1_GWF-(1,11459)
        435          9         35 -2.18680752E-04                    1_GWF-(1,26665)  8.39204951E-06                    1_GWF-(1,15107)
        436          9         36 -1.88115511E-04                    1_GWF-(1,21424) -7.65103132E-06                    1_GWF-(1,15107)
        437          9         37 -2.05331294E-04                    1_GWF-(1,21423)  8.81695799E-06                    1_GWF-(1,15107)
        438          9         38 -2.14291964E-04                    1_GWF-(1,24586) -5.71104199E-06                    1_GWF-(1,15107)
        439          9         39 -1.91043656E-04                    1_GWF-(1,24586)  6.44645788E-06                    1_GWF-(1,15107)
        440          9         40 -1.83130232E-04                    1_GWF-(1,20915) -6.71070385E-06                    1_GWF-(1,11459)
        441          9         41 -1.84167561E-04                    1_GWF-(1,20234)  3.46348312E-06                    1_GWF-(1,11459)
        442          9         42 -1.75610452E-04                    1_GWF-(1,20574)  2.79763581E-06                    1_GWF-(1,14801)
        443          9         43 -1.64857813E-04                     1_GWF-(1,8444) -6.77483106E-06                    1_GWF-(1,11459)
        444          9         44  1.40809615E-04                    1_GWF-(1,26217)  6.06738011E-06                    1_GWF-(1,11459)
        445          9         45  1.78898469E-04                    1_GWF-(1,26218)  3.46033832E-06                    1_GWF-(1,14938)
        446          9         46  1.57175899E-04                    1_GWF-(1,26217)  6.61686472E-06                    1_GWF-(1,15107)
        447          9         47  1.72332613E-04                    1_GWF-(1,26218)  7.41759728E-06                    1_GWF-(1,11459)
        448          9         48  1.56729281E-04                    1_GWF-(1,26217)  7.14066342E-06                    1_GWF-(1,15107)
        449          9         49  1.40600164E-04                    1_GWF-(1,26218) -3.94615657E-06                    1_GWF-(1,11459)
        450          9         50  1.11695415E-04                    1_GWF-(1,26543)  5.10843252E-06                    1_GWF-(1,11459)
        451         10          1 -1.40397289E-04                    1_GWF-(1,26622) -3.06893492E-06                    1_GWF-(1,11459)
        452         10          2 -1.67649829E-04                    1_GWF-(1,26588) -4.26467380E-06                    1_GWF-(1,11459)
        453         10          3 -1.38207985E-04                    1_GWF-(1,26622)  7.01903912E-06                    1_GWF-(1,11459)
        454         10          4  1.07726856E-04                    1_GWF-(1,21461) -3.29279179E-06                    1_GWF-(1,11459)
        455         10          5  1.15703694E-04                    1_GWF-(1,21681)  3.93141375E-06                    1_GWF-(1,15107)
        456         10          6 -1.32119935E-04                    1_GWF-(1,26217)  5.72267483E-06                    1_GWF-(1,11459)
        457         10          7 -1.31930241E-04                    1_GWF-(1,26218) -3.91885094E-06                    1_GWF-(1,11459)
        458         10          8  1.14220865E-04                    1_GWF-(1,20931)  2.02680233E-06                    1_GWF-(1,14938)
        459         10          9  1.23360689E-04                    1_GWF-(1,20577)  3.97311884E-06                    1_GWF-(1,11459)
        460         10         10  1.32931596E-04                    1_GWF-(1,20576) -4.12188059E-06                    1_GWF-(1,11459)
        461         10         11  1.19917546E-04                    1_GWF-(1,20232)  1.28539660E-06                    1_GWF-(1,11459)
        462         10         12  1.20191120E-04                    1_GWF-(1,24313)  2.28831021E-06                    1_GWF-(1,11459)
        463         10         13  1.27364596E-04                    1_GWF-(1,24586) -3.35722962E-06                    1_GWF-(1,11459)
        464         10         14  1.09994847E-04                    1_GWF-(1,21419)  1.15906388E-06                    1_GWF-(1,15107)
        465         10         15  1.00486504E-04                    1_GWF-(1,26486)  2.71171087E-06                    1_GWF-(1,11459)
        466         10         16  9.08470838E-05                    1_GWF-(1,24685) -2.62945894E-06                    1_GWF-(1,11459)
        467         10         17  1.04132289E-04                    1_GWF-(1,24689)  2.12436673E-06                    1_GWF-(1,15107)
        468         10         18  9.44215589E-05                    1_GWF-(1,24703)  2.14681998E-06                    1_GWF-(1,14799)
        469         10         19  8.50752356E-05                    1_GWF-(1,24678)  2.88689572E-06                    1_GWF-(1,15107)
        470         10         20  7.82938404E-05                    1_GWF-(1,24750) -2.18502795E-06                    1_GWF-(1,15107)
        471         10         21  8.10319532E-05                    1_GWF-(1,24961)  2.18257678E-06                    1_GWF-(1,15107)
        472         10         22  6.99422930E-05                    1_GWF-(1,24982) -2.10443843E-06                    1_GWF-(1,11459)
        473         10         23  6.80283405E-05                    1_GWF-(1,26665)  1.76640893E-06                    1_GWF-(1,15107)
        474         10         24 -9.20828032E-05                    1_GWF-(1,26665)  1.01728668E-06                    1_GWF-(1,15107)
        475         10         25 -8.12467944E-05                     1_GWF-(1,8338) -2.04481687E-06                    1_GWF-(1,11459)
        476         10         26 -7.79785573E-05                     1_GWF-(1,8336)  2.63149184E-06                    1_GWF-(1,15107)
        477         10         27  6.04083332E-05                    1_GWF-(1,26543)  1.88161082E-06                    1_GWF-(1,14938)
        478         10         28  9.45612593E-05                    1_GWF-(1,26588)  2.16748888E-06                    1_GWF-(1,15107)
        479         10         29  8.20265042E-05                    1_GWF-(1,26543)  1.20016797E-06                    1_GWF-(1,14801)
        480         10         30  8.69496181E-05                    1_GWF-(1,26588)  1.08381058E-06                    1_GWF-(1,11459)
        481         10         31  7.42760071E-05                    1_GWF-(1,26543) -1.91378281E-06                    1_GWF-(1,11459)
        482         10         32  5.41049728E-05                     1_GWF-(1,8020) -1.72216360E-06                    1_GWF-(1,15107)
        483         10         33  5.15847884E-05                     1_GWF-(1,8013)  2.09407292E-06                    1_GWF-(1,15107)
        484         10         34 -5.87901507E-05                    1_GWF-(1,26543) -1.83606617E-06                    1_GWF-(1,11459)
        485         10         35 -6.12210901E-05                    1_GWF-(1,26588)  1.33403062E-06                    1_GWF-(1,15107)
        486         10         36 -6.91668742E-05                    1_GWF-(1,26486)  1.38587671E-06                    1_GWF-(1,14801)
        487         10         37 -7.11456570E-05                    1_GWF-(1,26487) -1.52974800E-06                    1_GWF-(1,11459)
        488         10         38 -6.70000574E-05                    1_GWF-(1,26486)  1.46516922E-06                    1_GWF-(1,15107)
        489         10         39 -5.04006228E-05                    1_GWF-(1,26623)  1.25439481E-06                    1_GWF-(1,11459)
        490         10         40 -3.87287199E-05                    1_GWF-(1,20602) -1.76347480E-06                    1_GWF-(1,11459)
        491         10         41 -5.84833434E-05                    1_GWF-(1,20584)  9.00102075E-07                    1_GWF-(1,11459)
        492         10         42 -4.93936178E-05                    1_GWF-(1,20575)  8.56985254E-07                    1_GWF-(1,14801)
        493         10         43 -3.48545151E-05                    1_GWF-(1,20227) -1.35337321E-06                    1_GWF-(1,11459)
        494         10         44  5.01506294E-05                    1_GWF-(1,26422)  1.20303145E-06                    1_GWF-(1,11459)
        495         10         45  6.60181181E-05                    1_GWF-(1,26350)  1.17625921E-06                    1_GWF-(1,15107)
        496         10         46  7.91479032E-05                    1_GWF-(1,26422) -1.16093710E-06                    1_GWF-(1,11459)
        497         10         47  7.42875723E-05                    1_GWF-(1,26350)  1.31705195E-06                    1_GWF-(1,11459)
        498         10         48  6.73234549E-05                    1_GWF-(1,26422)  6.72384605E-07                    1_GWF-(1,15939)
        499         10         49  5.33391344E-05                    1_GWF-(1,26350) -9.67216214E-07                    1_GWF-(1,11459)
        500         10         50  4.51956303E-05                    1_GWF-(1,16114)  1.86318570E-06                    1_GWF-(1,11459)
        501         11          1 -5.37689625E-05                    1_GWF-(1,26422) -1.26337544E-06                    1_GWF-(1,11459)
        502         11          2 -6.16660704E-05                    1_GWF-(1,26350)  1.19863182E-06                    1_GWF-(1,15107)
        503         11          3 -5.94887982E-05                    1_GWF-(1,26422)  1.34116403E-06                    1_GWF-(1,11459)
        504         11          4 -6.03356980E-05                    1_GWF-(1,26420) -9.40112637E-07                    1_GWF-(1,11459)
        505         11          5 -6.32084169E-05                    1_GWF-(1,26487)  8.91045900E-07                    1_GWF-(1,15107)
        506         11          6 -7.05750018E-05                    1_GWF-(1,26486)  1.38357980E-06                    1_GWF-(1,11459)
        507         11          7 -4.72266349E-05                    1_GWF-(1,26544) -7.48537787E-07                    1_GWF-(1,11459)
        508         11          8 -3.55237031E-05                    1_GWF-(1,26486)  6.93864166E-07                    1_GWF-(1,14801)
        509         11          9  3.46180279E-05                    1_GWF-(1,26422)  1.32630637E-06                    1_GWF-(1,11459)
        510         11         10  3.76152156E-05                    1_GWF-(1,26350) -1.18235306E-06                    1_GWF-(1,11459)
        511         11         11  3.60264934E-05                    1_GWF-(1,26422)  8.36702224E-07                    1_GWF-(1,14938)
        512         11         12 -2.77783416E-05                    1_GWF-(1,26672)  1.31537893E-06                    1_GWF-(1,11459)
        513         11         13  2.88334661E-05                    1_GWF-(1,26543) -1.32171311E-06                    1_GWF-(1,11459)
        514         11         14  2.81156165E-05                    1_GWF-(1,26586)  7.32326152E-07                    1_GWF-(1,14801)
        515         11         15  2.94331071E-05                    1_GWF-(1,26623)  8.58883230E-07                    1_GWF-(1,11459)
        516         11         16 -2.98108152E-05                    1_GWF-(1,20224) -1.36484778E-06                    1_GWF-(1,11459)
        517         11         17 -2.89291631E-05                     1_GWF-(1,8085)  8.35604300E-07                    1_GWF-(1,11459)
        518         11         18 -2.75472639E-05                     1_GWF-(1,8092) -6.90219292E-07                    1_GWF-(1,15107)
        519         11         19 -3.41565825E-05                    1_GWF-(1,26588) -1.04344032E-06                    1_GWF-(1,11459)
        520         11         20 -3.06529892E-05                    1_GWF-(1,26486)  4.16041038E-07                    1_GWF-(1,14798)
        521         11         21 -3.14902707E-05                    1_GWF-(1,26623)  9.04622868E-07                    1_GWF-(1,11459)
        522         11         22 -2.60878416E-05                    1_GWF-(1,26622)  1.51157700E-06                    1_GWF-(1,15107)
        523         11         23 -2.86613062E-05                    1_GWF-(1,26623) -1.18702883E-06                    1_GWF-(1,15107)
        524         11         24 -2.45329387E-05                    1_GWF-(1,26665)  1.30300764E-06                    1_GWF-(1,15107)
        525         11         25  3.19371559E-05                    1_GWF-(1,26665) -9.54267862E-07                    1_GWF-(1,11459)
        526         11         26  3.08352850E-05                     1_GWF-(1,8339)  4.22994825E-07                    1_GWF-(1,14799)
        527         11         27  2.55967398E-05                    1_GWF-(1,26665)  1.21454754E-06                    1_GWF-(1,15107)
        528         11         28 -2.24260900E-05                    1_GWF-(1,25114) -1.13766139E-06                    1_GWF-(1,15107)
        529         11         29 -2.37118963E-05                    1_GWF-(1,24429)  1.41601660E-06                    1_GWF-(1,15107)
        530         11         30 -2.57902448E-05                    1_GWF-(1,24961) -1.50540659E-06                    1_GWF-(1,15107)
[...]
        542         11         42 -2.20357633E-05                    1_GWF-(1,26486)  9.20562147E-07                    1_GWF-(1,11459)
        543         11         43 -1.97975255E-05                     1_GWF-(1,8444) -1.07384959E-06                    1_GWF-(1,11459)
        544         11         44  1.63128917E-05                    1_GWF-(1,26217)  3.46861183E-07                    1_GWF-(1,15107)
        545         11         45  2.24748677E-05                    1_GWF-(1,26218)  6.46356341E-07                    1_GWF-(1,11459)
        546         11         46  2.12132889E-05                    1_GWF-(1,26217) -1.16342403E-06                    1_GWF-(1,11459)
        547         11         47  2.16913244E-05                    1_GWF-(1,26218) -8.31848806E-07                    1_GWF-(1,15107)
        548         11         48  1.77534731E-05                    1_GWF-(1,26217)  9.70230053E-07                    1_GWF-(1,15107)
        549         11         49  1.68606099E-05                    1_GWF-(1,26218) -9.90731019E-07                    1_GWF-(1,11459)
        550         11         50  1.33590855E-05                    1_GWF-(1,26217)  7.20074621E-07                    1_GWF-(1,11459)
        551         12          1 -1.21519168E-05                    1_GWF-(1,26217) -8.83343921E-07                    1_GWF-(1,11459)
        552         12          2 -1.58225401E-05                    1_GWF-(1,26218)  1.03148301E-06                    1_GWF-(1,15107)
        553         12          3 -1.78099349E-05                    1_GWF-(1,26622)  8.50114110E-07                    1_GWF-(1,11459)
        554         12          4 -2.02059150E-05                    1_GWF-(1,26588) -6.51004208E-07                    1_GWF-(1,11459)
        555         12          5 -1.72546575E-05                    1_GWF-(1,26486)  8.95190876E-07                    1_GWF-(1,15107)
        556         12          6 -1.62399578E-05                    1_GWF-(1,26217)  8.97062399E-07                    1_GWF-(1,11459)
        557         12          7 -1.58830152E-05                    1_GWF-(1,26218)  6.61734842E-07                    1_GWF-(1,15107)
        558         12          8  1.46836203E-05                    1_GWF-(1,20931)  2.87711342E-07                    1_GWF-(1,14938)
        559         12          9  1.58188390E-05                    1_GWF-(1,20574)  6.95502247E-07                    1_GWF-(1,11459)
        560         12         10  1.70712257E-05                    1_GWF-(1,20578) -6.57649731E-07                    1_GWF-(1,11459)
        561         12         11  1.47592930E-05                    1_GWF-(1,20232) -3.00862837E-07                    1_GWF-(1,15107)
        562         12         12  1.51995191E-05                    1_GWF-(1,21429)  5.96973381E-07                    1_GWF-(1,15107)
        563         12         13  1.64419424E-05                    1_GWF-(1,24311) -6.10778902E-07                    1_GWF-(1,11459)
        564         12         14  1.47654061E-05                    1_GWF-(1,21419)  6.13539696E-07                    1_GWF-(1,15107)
        565         12         15  1.28179818E-05                    1_GWF-(1,21426) -3.13368732E-07                    1_GWF-(1,15107)
        566         12         16 -1.35065820E-05                    1_GWF-(1,26665) -4.72252126E-07                    1_GWF-(1,11459)
        567         12         17  1.30260514E-05                    1_GWF-(1,26665)  3.76159368E-07                    1_GWF-(1,15107)
        568         12         18  1.11610662E-05                    1_GWF-(1,24703)  3.85239806E-07                    1_GWF-(1,14938)
        569         12         19  1.05192730E-05                    1_GWF-(1,25050)  6.19474047E-07                    1_GWF-(1,15107)
        570         12         20  9.88039994E-06                    1_GWF-(1,24750) -3.98933334E-07                    1_GWF-(1,15107)
        571         12         21  9.70598757E-06                    1_GWF-(1,24961)  2.48760398E-07                    1_GWF-(1,11459)
        572         12         22  9.17282683E-06                    1_GWF-(1,26588) -3.28883359E-07                    1_GWF-(1,11459)
        573         12         23 -8.35192077E-06                    1_GWF-(1,26588)  3.04433956E-07                    1_GWF-(1,14938)
        574         12         24 -9.60987577E-06                     1_GWF-(1,8474)  5.12285305E-07                    1_GWF-(1,15107)
        575         12         25 -1.11355723E-05                     1_GWF-(1,8339) -3.52013856E-07                    1_GWF-(1,15107)
        576         12         26 -1.02063754E-05                     1_GWF-(1,8336)  2.61272916E-07                    1_GWF-(1,15107)
        577         12         27  1.16775093E-05                    1_GWF-(1,26622)  3.07522835E-07                    1_GWF-(1,11459)
        578         12         28  1.26334066E-05                    1_GWF-(1,26649) -2.80732098E-07                    1_GWF-(1,15107)
        579         12         29  1.12676847E-05                    1_GWF-(1,26622)  4.46396298E-07                    1_GWF-(1,15107)
        580         12         30  8.66427426E-06                    1_GWF-(1,26649)  3.50426686E-07                    1_GWF-(1,11459)
        581         12         31  7.59591927E-06                    1_GWF-(1,26544) -2.84245399E-07                    1_GWF-(1,11459)
        582         12         32  7.85178617E-06                    1_GWF-(1,26422)  1.37599270E-07                    1_GWF-(1,14801)
        583         12         33 -8.84923829E-06                    1_GWF-(1,26422)  2.88893926E-07                    1_GWF-(1,11459)
        584         12         34 -8.59373777E-06                    1_GWF-(1,26350) -2.75359875E-07                    1_GWF-(1,11459)
        585         12         35 -8.93852111E-06                    1_GWF-(1,26588) -2.13358874E-07                    1_GWF-(1,15107)
        586         12         36 -8.85204728E-06                    1_GWF-(1,26589)  2.61701346E-07                    1_GWF-(1,11459)
        587         12         37 -9.00729897E-06                    1_GWF-(1,26588) -2.02752376E-07                    1_GWF-(1,11459)
        588         12         38 -1.18290700E-05                    1_GWF-(1,26486) -1.45019725E-07                    1_GWF-(1,15107)
        589         12         39 -9.55273906E-06                    1_GWF-(1,26544)  3.12159411E-07                    1_GWF-(1,11459)
        590         12         40 -7.86104830E-06                    1_GWF-(1,26486) -1.73912541E-07                    1_GWF-(1,11459)
        591         12         41 -6.84658426E-06                    1_GWF-(1,20584)  1.77876653E-07                    1_GWF-(1,15107)
        592         12         42 -6.28010756E-06                    1_GWF-(1,20577)  2.46302281E-07                    1_GWF-(1,11459)
        593         12         43 -4.48480689E-06                    1_GWF-(1,20216) -2.19369669E-07                    1_GWF-(1,11459)
        594         12         44 -3.43253607E-06                    1_GWF-(1,16544)  8.16543101E-08                    1_GWF-(1,14798)
        595         12         45  4.73556534E-06                    1_GWF-(1,16620)  1.57751518E-07                    1_GWF-(1,11459)
        596         12         46  5.33950678E-06                    1_GWF-(1,20229) -2.49455247E-07                    1_GWF-(1,11459)
        597         12         47  5.66472255E-06                    1_GWF-(1,16537) -2.06961688E-07                    1_GWF-(1,15107)
        598         12         48  6.56881982E-06                    1_GWF-(1,16236)  2.94589281E-07                    1_GWF-(1,15107)
        599         12         49  6.63991694E-06                    1_GWF-(1,16233) -2.10718746E-07                    1_GWF-(1,11459)
        600         12         50  5.70344425E-06                    1_GWF-(1,16199)  2.35744298E-07                    1_GWF-(1,11459)
        601         13          1 -2.87114400E-04                    1_GWF-(1,11459) -5.54507348E-08                    1_GWF-(1,15107)
        602         13          2 -8.43311722E-05                    1_GWF-(1,11460)  8.38643948E-08                    1_GWF-(1,15107)
        603         13          3  2.78370399E-05                    1_GWF-(1,11460)  7.61082441E-08                    1_GWF-(1,14799)
        604         13          4  2.53291095E-05                    1_GWF-(1,11439)  8.76824693E-08                    1_GWF-(1,15107)
        605         13          5 -1.96516614E-05                    1_GWF-(1,11460)  8.94395688E-08                    1_GWF-(1,14801)
        606         13          6 -2.15974198E-05                    1_GWF-(1,11439)  8.15083699E-08                    1_GWF-(1,14799)
        607         13          7  1.73252228E-05                    1_GWF-(1,11439)  1.19278770E-07                    1_GWF-(1,15107)
        608         13          8  1.22275325E-05                    1_GWF-(1,11440) -1.13568308E-07                    1_GWF-(1,15107)
        609         13          9  9.46450527E-06                    1_GWF-(1,11460)  1.46682175E-07                    1_GWF-(1,15107)
        610         13         10  1.06321430E-05                    1_GWF-(1,11439)  7.38608142E-08                    1_GWF-(1,14799)
        611         13         11 -9.02157083E-06                    1_GWF-(1,11439)  6.28694856E-08                    1_GWF-(1,14801)
        612         13         12 -5.47479336E-06                    1_GWF-(1,11461)  1.57908602E-07                    1_GWF-(1,15107)
        613         13         13  1.17390961E-05                    1_GWF-(1,11439)  1.04528661E-07                    1_GWF-(1,14938)
        614         13         14 -9.69635114E-06                    1_GWF-(1,11439)  1.12602915E-07                    1_GWF-(1,15107)
        615         13         15 -6.74145022E-06                    1_GWF-(1,11440)  6.78977399E-08                    1_GWF-(1,14801)
        616         13         16  6.66998539E-06                    1_GWF-(1,11439)  5.86994946E-08                    1_GWF-(1,14799)
        617         13         17  5.20248808E-06                    1_GWF-(1,26665)  1.07431941E-07                    1_GWF-(1,15107)
        618         13         18 -5.12663928E-06                    1_GWF-(1,26665)  8.15163369E-08                    1_GWF-(1,14799)
        619         13         19  5.58914352E-06                    1_GWF-(1,26665)  8.05651753E-08                    1_GWF-(1,14801)
        620         13         20 -4.06956601E-06                    1_GWF-(1,11486)  7.31454449E-08                    1_GWF-(1,10342)
        621         13         21  4.06332911E-06                    1_GWF-(1,11415)  6.40394550E-08                    1_GWF-(1,10342)
        622         13         22 -3.62472458E-06                    1_GWF-(1,26544)  1.31531802E-07                    1_GWF-(1,15107)
        623         13         23 -4.83845108E-06                    1_GWF-(1,26486)  6.86209100E-08                    1_GWF-(1,14935)
        624         13         24 -4.88324151E-06                    1_GWF-(1,26623)  6.74121018E-08                    1_GWF-(1,14799)
        625         13         25  3.56777718E-06                    1_GWF-(1,11416)  1.38755603E-07                    1_GWF-(1,15107)
        626         13         26 -3.70640068E-06                    1_GWF-(1,11416)  1.49394100E-07                    1_GWF-(1,14938)
        627         13         27  4.11295529E-06                     1_GWF-(1,8339)  1.43471244E-07                    1_GWF-(1,15107)
        628         13         28 -4.84857608E-06                    1_GWF-(1,15167) -2.06327519E-07                    1_GWF-(1,15107)
        629         13         29  4.27072307E-06                    1_GWF-(1,15161)  2.39792997E-07                    1_GWF-(1,15107)
        630         13         30 -3.13982526E-06                    1_GWF-(1,15162)  1.51955482E-07                    1_GWF-(1,14938)
        631         13         31 -6.01420562E-06                    1_GWF-(1,15167) -1.00519582E-07                    1_GWF-(1,14938)
        632         13         32  4.33428896E-06                    1_GWF-(1,15167)  1.12622066E-07                    1_GWF-(1,14801)
        633         13         33  3.89160565E-06                    1_GWF-(1,26422)  1.20487827E-07                    1_GWF-(1,14799)
        634         13         34 -6.48644072E-06                    1_GWF-(1,15167)  9.99433221E-08                    1_GWF-(1,15107)
        635         13         35  4.62689178E-06                    1_GWF-(1,15167) -1.70891567E-07                    1_GWF-(1,15107)
        636         13         36  3.45424000E-06                    1_GWF-(1,15164)  2.64356209E-07                    1_GWF-(1,15107)
        637         13         37 -5.03116769E-06                    1_GWF-(1,15167)  1.40949788E-07                    1_GWF-(1,14938)
        638         13         38 -3.55697955E-06                    1_GWF-(1,26487)  5.59289684E-08                    1_GWF-(1,14814)
        639         13         39 -3.63441014E-06                    1_GWF-(1,26486)  1.37088411E-07                    1_GWF-(1,15107)
        640         13         40 -5.51504309E-06                    1_GWF-(1,15167)  1.67514203E-07                    1_GWF-(1,14938)
        641         13         41  3.37732979E-06                    1_GWF-(1,15167)  1.65057251E-07                    1_GWF-(1,15107)
        642         13         42  2.67871641E-06                    1_GWF-(1,15164) -1.86251153E-07                    1_GWF-(1,15107)
        643         13         43 -4.35282630E-06                    1_GWF-(1,15167)  1.30877844E-07                    1_GWF-(1,15107)
        644         13         44 -2.81716509E-06                    1_GWF-(1,26588)  1.01901585E-07                    1_GWF-(1,14801)
        645         13         45 -2.36810975E-06                    1_GWF-(1,26649) -1.89835570E-07                    1_GWF-(1,15107)
        646         13         46 -4.47268441E-06                    1_GWF-(1,15167)  1.85758973E-07                    1_GWF-(1,15107)
        647         13         47  2.96545452E-06                    1_GWF-(1,15167)  1.54967813E-07                    1_GWF-(1,14938)
        648         13         48  2.28512451E-06                    1_GWF-(1,26487)  1.20632617E-07                    1_GWF-(1,14799)
        649         13         49  2.52793851E-06                    1_GWF-(1,26486)  8.51626742E-08                    1_GWF-(1,14798)
        650         13         50  2.88505922E-06                    1_GWF-(1,26588)  6.41668372E-08                    1_GWF-(1,14813)
        651         14          1 -2.57869350E-06                    1_GWF-(1,26588)  3.99193025E-08                    1_GWF-(1,14801)
        652         14          2 -2.42782882E-06                    1_GWF-(1,26543)  1.42555762E-07                    1_GWF-(1,14799)
        653         14          3 -2.38359821E-06                    1_GWF-(1,26588)  1.16236069E-07                    1_GWF-(1,14938)
        654         14          4 -2.32568582E-06                    1_GWF-(1,15167)  1.59038699E-07                    1_GWF-(1,15107)
        655         14          5  2.03935179E-06                    1_GWF-(1,15167) -1.73280374E-07                    1_GWF-(1,15107)
        656         14          6  2.53973031E-06                    1_GWF-(1,26665)  1.16143302E-07                    1_GWF-(1,15107)
        657         14          7  2.35127772E-06                    1_GWF-(1,26666)  5.62693690E-08                    1_GWF-(1,14813)
        658         14          8  2.45228925E-06                    1_GWF-(1,26665) -9.27833559E-08                    1_GWF-(1,15107)
        659         14          9  1.60620057E-06                    1_GWF-(1,21259)  1.01892048E-07                    1_GWF-(1,15107)
        660         14         10 -1.89286986E-06                    1_GWF-(1,15167)  1.12231769E-07                    1_GWF-(1,14938)
        661         14         11  1.96703485E-06                    1_GWF-(1,15167)  1.00803206E-07                    1_GWF-(1,15107)
        662         14         12 -2.04786661E-06                    1_GWF-(1,26622) -4.59953190E-08                    1_GWF-(1,15107)
        663         14         13 -1.84788860E-06                    1_GWF-(1,26623)  6.70585516E-08                    1_GWF-(1,14799)
        664         14         14  1.76831643E-06                    1_GWF-(1,21425)  1.58536330E-07                    1_GWF-(1,15107)
        665         14         15  1.53868345E-06                    1_GWF-(1,21423) -1.03076489E-07                    1_GWF-(1,15107)
        666         14         16 -1.61060005E-06                    1_GWF-(1,15167)  5.51571818E-08                    1_GWF-(1,15107)
        667         14         17 -1.68389788E-06                    1_GWF-(1,26420)  6.41532308E-08                    1_GWF-(1,14798)
        668         14         18  1.31299162E-06                    1_GWF-(1,24649) -5.62570495E-08                    1_GWF-(1,15107)
        669         14         19 -1.69103985E-06                    1_GWF-(1,15167)  8.34439011E-08                    1_GWF-(1,15107)
        670         14         20  1.20400630E-06                    1_GWF-(1,15164) -8.33397922E-08                    1_GWF-(1,15107)
        671         14         21  1.21893578E-06                    1_GWF-(1,15162)  9.92128910E-08                    1_GWF-(1,15107)
        672         14         22 -1.35628584E-06                    1_GWF-(1,15167) -4.14805017E-08                    1_GWF-(1,15107)
        673         14         23 -1.04756981E-06                     1_GWF-(1,8444)  4.04555848E-08                    1_GWF-(1,14801)
        674         14         24 -1.32324528E-06                     1_GWF-(1,8339)  6.68658292E-08                    1_GWF-(1,15107)
        675         14         25 -1.18687877E-06                    1_GWF-(1,26622)  5.11462727E-08                    1_GWF-(1,14938)
        676         14         26  1.06434560E-06                    1_GWF-(1,26543)  3.68825830E-08                    1_GWF-(1,14801)
        677         14         27  1.33021335E-06                    1_GWF-(1,26588)  3.65768517E-08                    1_GWF-(1,15107)
        678         14         28  1.14344447E-06                    1_GWF-(1,26589) -6.77505167E-08                    1_GWF-(1,15107)
        679         14         29  1.11486598E-06                    1_GWF-(1,26588)  9.62439600E-08                    1_GWF-(1,15107)
        680         14         30  1.04020002E-06                    1_GWF-(1,11482) -7.31764018E-08                    1_GWF-(1,15107)
        681         14         31 -9.41463201E-07                    1_GWF-(1,11482) -4.34909479E-08                    1_GWF-(1,14938)
        682         15          1 -8.36639745E-07                    1_GWF-(1,11439) -4.64740486E-08                    1_GWF-(1,15107)
 --------------------------------------------------------------------------------------------------------------------------------------



 MEMORY MANAGER TOTAL STORAGE BY DATA TYPE, IN MEGABYTES
 -------------------------------
                    ALLOCATED   
 DATA TYPE           MEMORY     
 -------------------------------
 Character        4.66090000E-02
 Logical          4.40000000E-05
 Integer          5.2037920     
 Real             11.901376     
 -------------------------------
 Total            17.151821     
 -------------------------------


 
 Run end date and time (yyyy/mm/dd hh:mm:ss): 2022/05/24 11:58:57
 Elapsed run time:  0.654 Seconds
 Normal termination of simulation.
