                                   MODFLOW 6
                U.S. GEOLOGICAL SURVEY MODULAR HYDROLOGIC MODEL
                            VERSION 6.2.2 07/30/2021

   MODFLOW 6 compiled Jul 31 2021 14:22:53 with IFORT compiler (ver. 19.10.3)

This software has been approved for release by the U.S. Geological 
Survey (USGS). Although the software has been subjected to rigorous 
review, the USGS reserves the right to update the software as needed 
pursuant to further analysis and review. No warranty, expressed or 
implied, is made by the USGS or the U.S. Government as to the 
functionality of the software and related material nor shall the 
fact of release constitute any such warranty. Furthermore, the 
software is released on condition that neither the USGS nor the U.S. 
Government shall be held liable for any damages resulting from its 
authorized or unauthorized use. Also refer to the USGS Water 
Resources Software User Rights Notice for complete use, copyright, 
and distribution information.


System command used to initiate simulation:
mf6

MODFLOW was compiled using uniform precision.

Real Variables
  KIND: 8
  TINY (smallest non-zero value):    2.225074-308
  HUGE (largest value):    1.797693+308
  PRECISION: 15
  BIT SIZE: 64

Integer Variables
  KIND: 4
  HUGE (largest value): 2147483647
  BIT SIZE: 32

Long Integer Variables
  KIND: 8
  HUGE (largest value): 9223372036854775807
  BIT SIZE: 64

Logical Variables
  KIND: 4
  BIT SIZE: 32
 

 OPENED mfsim.nam
 FILE TYPE:NAM   UNIT 1001   STATUS:OLD                 
 FORMAT:FORMATTED              ACCESS:SEQUENTIAL          
 ACTION:READ                

 # File generated by Flopy version 3.3.5 on 05/30/2022 at 17:40:20.

 READING SIMULATION OPTIONS
 END OF SIMULATION OPTIONS

 READING SIMULATION TIMING

 OPENED mfsim.tdis
 FILE TYPE:TDIS   UNIT 1002   STATUS:OLD                 
 FORMAT:FORMATTED              ACCESS:SEQUENTIAL          
 ACTION:READ                


 TDIS -- TEMPORAL DISCRETIZATION PACKAGE,
 VERSION 1 : 11/13/2014 - INPUT READ FROM UNIT 1002
 # File generated by Flopy version 3.3.5 on 05/30/2022 at 17:40:20.
 PROCESSING TDIS OPTIONS
    SIMULATION TIME UNIT IS SECONDS
 END OF TDIS OPTIONS
 PROCESSING TDIS DIMENSIONS
    1 STRESS PERIOD(S) IN SIMULATION
 END OF TDIS DIMENSIONS
 PROCESSING TDIS PERIODDATA


 STRESS PERIOD     LENGTH       TIME STEPS     MULTIPLIER FOR DELT
 ----------------------------------------------------------------------------
        1         2.000000          1                    1.000
 END OF TDIS PERIODDATA
 END OF SIMULATION TIMING

 READING SIMULATION MODELS
    GWF6 model ML will be created as model 1
 END OF SIMULATION MODELS

 READING SIMULATION EXCHANGES
 END OF SIMULATION EXCHANGES

 READING SOLUTIONGROUP

 Creating solution: SLN_1           

 OPENED mfsim.ims
 FILE TYPE:IMS   UNIT 1015   STATUS:OLD                 
 FORMAT:FORMATTED              ACCESS:SEQUENTIAL          
 ACTION:READ                

 END OF SIMULATION SOLUTIONGROUP

 IMS -- ITERATIVE MODEL SOLUTION PACKAGE, VERSION 6, 4/28/2017
         INPUT READ FROM UNIT 1015
 # File generated by Flopy version 3.3.5 on 05/30/2022 at 17:40:20.

 PROCESSING IMS OPTIONS
 END OF IMS OPTIONS

 PROCESSING IMS NONLINEAR
 END OF IMS NONLINEAR DATA
 ***UNDER-RELAXATION WILL NOT BE USED***
 
 ***IMS LINEAR SOLVER WILL BE USED***

 IMSLINEAR -- UNSTRUCTURED LINEAR SOLUTION PACKAGE, VERSION 8, 04/28/2017

 PROCESSING LINEAR DATA
 END OF LINEAR DATA
 
 OUTER ITERATION CONVERGENCE CRITERION    (DVCLOSE) =    0.100000E-04
 MAXIMUM NUMBER OF OUTER ITERATIONS        (MXITER) = 100
 SOLVER PRINTOUT INDEX                     (IPRIMS) = 2
 NONLINEAR ITERATION METHOD            (NONLINMETH) = 0
 LINEAR SOLUTION METHOD                   (LINMETH) = 1

       SOLUTION BY THE        CONJUGATE-GRADIENT       METHOD
 ------------------------------------------------------------------
 MAXIMUM OF 100 CALLS OF SOLUTION ROUTINE
 MAXIMUM OF 50 INTERNAL ITERATIONS PER CALL TO SOLUTION ROUTINE
 LINEAR ACCELERATION METHOD            = CG        
 MATRIX PRECONDITIONING TYPE           = INCOMPLETE LU       
 MATRIX SCALING APPROACH               = NO SCALING          
 MATRIX REORDERING APPROACH            = ORIGINAL ORDERING        
 NUMBER OF ORTHOGONALIZATIONS          = 0
 HEAD CHANGE CRITERION FOR CLOSURE     =    0.10000E-05
 RESIDUAL CHANGE CRITERION FOR CLOSURE =    0.10000E-04
 RESIDUAL CONVERGENCE OPTION           = 1
 RESIDUAL CONVERGENCE NORM             = INFINITY NORM S 
 RELAXATION FACTOR                     =    0.00000E+00



 
    Solving:  Stress period:     1    Time step:     1
 
1
                            STRESS PERIOD NO. 1, LENGTH =   2.000000    
                            -----------------------------------------------
                            NUMBER OF TIME STEPS = 1
                            MULTIPLIER FOR DELT =     1.000
                            INITIAL TIME STEP SIZE =   2.000000    

 SLN_1 OUTER ITERATION SUMMARY
 ----------------------------------------------------------------------------------------------------------
                                OUTER      INNER                    STEP   MAXIMUM CHANGE MODEL-(CELLID) OR
 OUTER ITERATION STEP       ITERATION  ITERATION  MAXIMUM CHANGE SUCCESS             MODEL-PACKAGE-(NUMBER)
 ----------------------------------------------------------------------------------------------------------
 Model                              1         50       99.869260                            1_GWF-(1,26519)
 Model                              2         50      -94.936547                            1_GWF-(1,26519)
 Model                              3         50     -0.28885046                            1_GWF-(1,25363)
 Model                              4         50 -4.72330498E-02                            1_GWF-(1,21392)
 Model                              5         50 -1.58430798E-02                            1_GWF-(1,11426)
 Model                              6         50 -5.07839690E-04                            1_GWF-(1,25409)
 Model                              7         50 -6.60005881E-05                            1_GWF-(1,25302)
 Model                              8         24 -6.95359727E-06                            1_GWF-(1,13363)
 Model                              9          1  8.43186676E-07       *                    1_GWF-(1,26420)
 ----------------------------------------------------------------------------------------------------------


 9 CALLS TO NUMERICAL SOLUTION IN TIME STEP 1 STRESS PERIOD 1
 375 TOTAL ITERATIONS

 SLN_1 INNER ITERATION SUMMARY
 --------------------------------------------------------------------------------------------------------------------------------------
      TOTAL      OUTER      INNER                                                            MAXIMUM                                   
  ITERATION  ITERATION  ITERATION  MAXIMUM CHANGE      MAXIMUM CHANGE MODEL-(CELLID)        RESIDUAL    MAXIMUM RESIDUAL MODEL-(CELLID)
 --------------------------------------------------------------------------------------------------------------------------------------
          1          1          1       14.923387                    1_GWF-(1,26517)      0.58574898                    1_GWF-(1,11179)
          2          1          2       16.741628                    1_GWF-(1,26516)     -0.40846317                    1_GWF-(1,11179)
          3          1          3       20.983893                    1_GWF-(1,26563)     -0.33733012                    1_GWF-(1,11161)
          4          1          4       21.067881                    1_GWF-(1,26513)      0.33528915                    1_GWF-(1,11178)
          5          1          5       16.308281                    1_GWF-(1,26647)     -0.27940564                    1_GWF-(1,11208)
          6          1          6       20.139906                    1_GWF-(1,26649)     -0.30425284                    1_GWF-(1,11207)
          7          1          7       17.350049                    1_GWF-(1,26622)      0.24073199                    1_GWF-(1,11207)
          8          1          8       11.605416                    1_GWF-(1,26623)     -0.17620450                    1_GWF-(1,11207)
          9          1          9       10.632057                    1_GWF-(1,26589)      0.10895613                    1_GWF-(1,10957)
         10          1         10       9.9394333                    1_GWF-(1,26486)     -0.14329261                    1_GWF-(1,11158)
         11          1         11       9.4266044                    1_GWF-(1,26544)     -0.15522419                    1_GWF-(1,11207)
         12          1         12       7.9098884                    1_GWF-(1,26420)      0.11492744                    1_GWF-(1,11153)
         13          1         13       6.6527334                    1_GWF-(1,26422)  6.78961014E-02                    1_GWF-(1,11194)
         14          1         14      -6.1963613                    1_GWF-(1,26622)     -0.10083338                    1_GWF-(1,11153)
         15          1         15      -5.2823142                    1_GWF-(1,26623) -6.72249608E-02                    1_GWF-(1,11194)
         16          1         16      -4.3685312                    1_GWF-(1,26622)  8.55850409E-02                    1_GWF-(1,11180)
         17          1         17      -4.6366904                    1_GWF-(1,26588) -8.33168161E-02                    1_GWF-(1,11153)
         18          1         18      -5.6450900                    1_GWF-(1,26350) -8.56663800E-02                    1_GWF-(1,11194)
         19          1         19      -6.8885349                    1_GWF-(1,26588)  7.28680596E-02                    1_GWF-(1,11194)
         20          1         20      -5.9139837                    1_GWF-(1,26543) -4.86402640E-02                    1_GWF-(1,11155)
         21          1         21      -4.7186169                    1_GWF-(1,26487) -7.46752860E-02                    1_GWF-(1,11194)
         22          1         22      -5.4286107                    1_GWF-(1,26486)  5.49675245E-02                    1_GWF-(1,11200)
         23          1         23      -4.6466646                    1_GWF-(1,26487)  4.94103378E-02                    1_GWF-(1,11151)
         24          1         24      -4.3056472                    1_GWF-(1,26486) -4.58770909E-02                    1_GWF-(1,11194)
         25          1         25       3.9581890                    1_GWF-(1,26420) -4.80981757E-02                    1_GWF-(1,11109)
         26          1         26       4.4570926                    1_GWF-(1,26487)  4.84874890E-02                    1_GWF-(1,11109)
         27          1         27       4.0748305                    1_GWF-(1,26420)  4.02223904E-02                    1_GWF-(1,11108)
         28          1         28       2.4201989                    1_GWF-(1,26487) -4.03161677E-02                    1_GWF-(1,11195)
         29          1         29       2.1840213                    1_GWF-(1,26588)  4.60195574E-02                    1_GWF-(1,11109)
         30          1         30       2.9628716                    1_GWF-(1,26623)  4.79488980E-02                    1_GWF-(1,11110)
         31          1         31       2.6088223                    1_GWF-(1,26586) -4.25213546E-02                    1_GWF-(1,11150)
         32          1         32       2.2533091                    1_GWF-(1,26648) -3.49173795E-02                    1_GWF-(1,11065)
         33          1         33      -2.0918137                    1_GWF-(1,26422)  2.66448813E-02                    1_GWF-(1,11148)
         34          1         34       2.0686222                    1_GWF-(1,26665) -3.03768486E-02                    1_GWF-(1,11108)
         35          1         35      -1.8844696                    1_GWF-(1,26422) -3.07426483E-02                    1_GWF-(1,11158)
         36          1         36      -1.5179364                    1_GWF-(1,26350)  3.15265654E-02                    1_GWF-(1,11065)
         37          1         37       1.4769194                    1_GWF-(1,26350)  3.61850239E-02                    1_GWF-(1,11200)
         38          1         38       1.2435908                    1_GWF-(1,26422)  3.72238936E-02                    1_GWF-(1,11203)
         39          1         39      -1.4490899                    1_GWF-(1,26649)  3.63960707E-02                    1_GWF-(1,11200)
         40          1         40      -1.1933387                    1_GWF-(1,26648) -3.16435765E-02                    1_GWF-(1,11206)
         41          1         41     -0.95577765                    1_GWF-(1,26649) -2.44491321E-02                    1_GWF-(1,11196)
         42          1         42     -0.75322779                    1_GWF-(1,26648) -2.43069880E-02                    1_GWF-(1,11195)
         43          1         43     -0.72905013                    1_GWF-(1,26586)  2.75581668E-02                    1_GWF-(1,11195)
         44          1         44     -0.77177628                    1_GWF-(1,26543)  2.48446693E-02                    1_GWF-(1,11112)
         45          1         45     -0.63583020                    1_GWF-(1,26542)  2.34321796E-02                    1_GWF-(1,11158)
         46          1         46     -0.85304739                    1_GWF-(1,26218)  3.13648473E-02                    1_GWF-(1,11153)
         47          1         47      -1.1809286                    1_GWF-(1,26217) -2.72031545E-02                    1_GWF-(1,11153)
         48          1         48      -1.3145854                    1_GWF-(1,26218) -2.07898765E-02                    1_GWF-(1,11152)
         49          1         49      -1.2642799                    1_GWF-(1,26217) -2.24262407E-02                    1_GWF-(1,11150)
         50          1         50      -1.1600125                    1_GWF-(1,26218) -2.18726835E-02                    1_GWF-(1,11153)
         51          2          1      -97.875112                    1_GWF-(1,26519)     -0.18867356                    1_GWF-(1,26458)
         52          2          2      -36.670550                    1_GWF-(1,26513) -5.27142675E-02                    1_GWF-(1,26516)
         53          2          3      -20.767059                    1_GWF-(1,26637)  5.27640782E-02                    1_GWF-(1,26516)
         54          2          4      -22.147958                    1_GWF-(1,26665) -1.93078374E-02                    1_GWF-(1,26519)
         55          2          5      -12.242964                    1_GWF-(1,26622)  2.01162209E-02                    1_GWF-(1,26519)
         56          2          6      -11.452225                    1_GWF-(1,26589)  1.45585128E-02                    1_GWF-(1,26516)
         57          2          7      -9.9675253                    1_GWF-(1,26543) -1.18669742E-02                    1_GWF-(1,26516)
         58          2          8      -8.0024672                    1_GWF-(1,26486)  8.95212445E-03                    1_GWF-(1,26519)
         59          2          9      -5.3501454                    1_GWF-(1,26487)  6.69659581E-03                    1_GWF-(1,26665)
         60          2         10      -4.6152986                    1_GWF-(1,26421) -5.77995982E-03                    1_GWF-(1,26665)
         61          2         11      -4.0081650                    1_GWF-(1,26350)  4.33378679E-03                    1_GWF-(1,26519)
         62          2         12      -3.0219621                    1_GWF-(1,26217)  3.53300929E-03                    1_GWF-(1,26516)
         63          2         13      -1.5611992                    1_GWF-(1,26622) -2.35511184E-03                    1_GWF-(1,26622)
         64          2         14      -1.2611412                    1_GWF-(1,26623) -2.22788961E-03                    1_GWF-(1,26563)
         65          2         15      -1.1783420                    1_GWF-(1,26622)  3.18918649E-03                    1_GWF-(1,26516)
         66          2         16      -1.5729374                    1_GWF-(1,25730)  4.10184695E-03                    1_GWF-(1,26599)
         67          2         17       1.3862291                    1_GWF-(1,26350) -2.94760058E-03                    1_GWF-(1,26563)
         68          2         18       1.3312348                    1_GWF-(1,26422) -1.99165914E-03                    1_GWF-(1,26588)
         69          2         19       1.2104507                    1_GWF-(1,26588)  1.95867609E-03                    1_GWF-(1,26588)
         70          2         20       1.0272237                    1_GWF-(1,26543) -2.32583850E-03                    1_GWF-(1,26563)
         71          2         21       1.0898539                    1_GWF-(1,26544)  1.99701945E-03                    1_GWF-(1,14801)
         72          2         22       1.1682781                    1_GWF-(1,26543)  2.45492975E-03                    1_GWF-(1,26601)
         73          2         23     -0.89878512                    1_GWF-(1,26218) -2.70630155E-03                    1_GWF-(1,26563)
         74          2         24      -1.4661085                    1_GWF-(1,26487)  2.66371760E-03                    1_GWF-(1,26486)
         75          2         25      -1.6490895                    1_GWF-(1,26486)  2.69961458E-03                    1_GWF-(1,26563)
         76          2         26      -1.5736678                    1_GWF-(1,26487) -2.74203420E-03                    1_GWF-(1,26563)
         77          2         27     -0.94109666                    1_GWF-(1,26420) -1.88933330E-03                    1_GWF-(1,26562)
         78          2         28      0.86396279                    1_GWF-(1,26217)  2.16453557E-03                    1_GWF-(1,26563)
         79          2         29      0.67516300                    1_GWF-(1,26218) -1.73006831E-03                    1_GWF-(1,26563)
         80          2         30      0.68427137                    1_GWF-(1,26420) -1.98424568E-03                    1_GWF-(1,26562)
         81          2         31     -0.47537009                    1_GWF-(1,26674)  1.35741684E-03                    1_GWF-(1,26562)
         82          2         32     -0.45743365                    1_GWF-(1,26421) -1.39489421E-03                    1_GWF-(1,26516)
         83          2         33     -0.57207995                    1_GWF-(1,26350) -1.60850551E-03                    1_GWF-(1,26562)
         84          2         34      0.58406194                    1_GWF-(1,26350)  1.87117685E-03                    1_GWF-(1,26562)
         85          2         35      0.86305595                    1_GWF-(1,26422) -1.30682755E-03                    1_GWF-(1,10966)
         86          2         36      0.55732818                    1_GWF-(1,26350) -1.70657793E-03                    1_GWF-(1,26562)
         87          2         37     -0.53214768                    1_GWF-(1,26350)  1.95879148E-03                    1_GWF-(1,26562)
         88          2         38     -0.34644262                    1_GWF-(1,26422)  1.35066446E-03                    1_GWF-(1,14960)
         89          2         39     -0.34282888                    1_GWF-(1,26544)  1.62600749E-03                    1_GWF-(1,14961)
         90          2         40     -0.37274855                    1_GWF-(1,26486) -2.04181501E-03                    1_GWF-(1,10966)
         91          2         41     -0.25989901                    1_GWF-(1,26420)  2.10034444E-03                    1_GWF-(1,14800)
         92          2         42     -0.20868710                    1_GWF-(1,26588)  2.46217656E-03                    1_GWF-(1,14801)
         93          2         43     -0.25613879                    1_GWF-(1,25852)  3.16055953E-03                    1_GWF-(1,10966)
         94          2         44     -0.23221569                    1_GWF-(1,26196)  3.20315837E-03                    1_GWF-(1,14801)
         95          2         45     -0.21166889                    1_GWF-(1,26420)  5.15293774E-03                    1_GWF-(1,10966)
         96          2         46     -0.19716560                    1_GWF-(1,26569)  4.09610556E-03                    1_GWF-(1,10961)
         97          2         47      0.18710263                    1_GWF-(1,26193)  6.23752983E-03                    1_GWF-(1,10966)
         98          2         48      0.14608345                    1_GWF-(1,26398)  4.62083769E-03                    1_GWF-(1,10961)
         99          2         49      0.14460785                    1_GWF-(1,22773)  6.03063406E-03                    1_GWF-(1,10966)
        100          2         50      0.14850521                    1_GWF-(1,26196)  4.31510909E-03                    1_GWF-(1,10961)
        101          3          1  8.27604933E-02                    1_GWF-(1,22783) -8.55032969E-03                    1_GWF-(1,11936)
        102          3          2      0.15061606                    1_GWF-(1,22783)  5.00828884E-03                    1_GWF-(1,10961)
        103          3          3      0.11017126                    1_GWF-(1,26649)  8.91902170E-03                    1_GWF-(1,11936)
        104          3          4     -0.15093036                    1_GWF-(1,22783) -5.87132939E-03                    1_GWF-(1,11936)
        105          3          5      0.14491474                    1_GWF-(1,26588)  4.35089362E-03                    1_GWF-(1,10966)
        106          3          6      0.11995070                    1_GWF-(1,26194)  3.44212072E-03                    1_GWF-(1,14801)
        107          3          7     -0.12599792                    1_GWF-(1,26543)  3.72430328E-03                    1_GWF-(1,10966)
        108          3          8     -0.11051574                    1_GWF-(1,26421)  2.10422816E-03                    1_GWF-(1,11936)
        109          3          9      0.11324730                    1_GWF-(1,26588)  2.26265707E-03                    1_GWF-(1,10966)
        110          3         10  9.31684412E-02                    1_GWF-(1,26420) -2.37939817E-03                    1_GWF-(1,14800)
        111          3         11      0.12765308                    1_GWF-(1,26486) -2.04646658E-03                    1_GWF-(1,14801)
        112          3         12      0.10655338                    1_GWF-(1,26648) -1.66975274E-03                    1_GWF-(1,14800)
        113          3         13     -0.10440098                    1_GWF-(1,26672) -1.36449155E-03                    1_GWF-(1,14801)
        114          3         14 -9.70018862E-02                    1_GWF-(1,26622)  1.21657754E-03                    1_GWF-(1,11936)
        115          3         15     -0.11426690                    1_GWF-(1,26350)  1.11946017E-03                    1_GWF-(1,15940)
        116          3         16     -0.12956523                    1_GWF-(1,26422)  1.00384997E-03                    1_GWF-(1,10966)
        117          3         17      0.10168636                    1_GWF-(1,26422) -1.13401654E-03                    1_GWF-(1,10966)
        118          3         18      0.12327387                    1_GWF-(1,26350)  8.80045206E-04                    1_GWF-(1,10966)
        119          3         19      0.11636291                    1_GWF-(1,26422)  9.78365514E-04                    1_GWF-(1,14801)
        120          3         20     -0.11126343                    1_GWF-(1,26422)  9.22709438E-04                    1_GWF-(1,14800)
        121          3         21 -8.58590151E-02                    1_GWF-(1,26420)  8.87897845E-04                    1_GWF-(1,14801)
        122          3         22     -0.10440410                    1_GWF-(1,26672)  6.30513378E-04                    1_GWF-(1,14800)
        123          3         23  7.91336587E-02                    1_GWF-(1,26648) -6.42050503E-04                    1_GWF-(1,10961)
        124          3         24      0.12148444                    1_GWF-(1,26588) -8.85678948E-04                    1_GWF-(1,10966)
        125          3         25      0.14492280                    1_GWF-(1,26543) -7.72480633E-04                    1_GWF-(1,14801)
        126          3         26      0.13930605                    1_GWF-(1,26588) -5.52280536E-04                    1_GWF-(1,10965)
        127          3         27      0.12021401                    1_GWF-(1,26420) -1.14613612E-03                    1_GWF-(1,10966)
        128          3         28 -7.59315249E-02                    1_GWF-(1,26586)  9.45509567E-04                    1_GWF-(1,14800)
        129          3         29 -9.48921544E-02                    1_GWF-(1,26543) -1.32737640E-03                    1_GWF-(1,10966)
        130          3         30 -9.41736493E-02                    1_GWF-(1,26420) -1.05439440E-03                    1_GWF-(1,14801)
        131          3         31     -0.11226046                    1_GWF-(1,26487)  7.52307624E-04                    1_GWF-(1,14801)
        132          3         32 -8.97856453E-02                    1_GWF-(1,26420) -3.50892067E-04                    1_GWF-(1,10966)
        133          3         33 -7.33579421E-02                    1_GWF-(1,26422)  9.46280961E-04                    1_GWF-(1,14800)
        134          3         34 -5.50577184E-02                    1_GWF-(1,26350)  1.32642658E-03                    1_GWF-(1,14801)
        135          3         35  4.88450316E-02                    1_GWF-(1,26623)  1.26174698E-03                    1_GWF-(1,14800)
        136          3         36 -5.20292924E-02                    1_GWF-(1,26623)  9.91528580E-04                    1_GWF-(1,14801)
        137          3         37  5.78501227E-02                    1_GWF-(1,26623)  3.70821945E-04                    1_GWF-(1,14800)
        138          3         38  6.46241752E-02                    1_GWF-(1,26622)  7.47855809E-04                    1_GWF-(1,14800)
        139          3         39  5.29494240E-02                    1_GWF-(1,22786)  1.35925403E-03                    1_GWF-(1,14801)
        140          3         40 -4.60336932E-02                    1_GWF-(1,26665) -1.56396046E-03                    1_GWF-(1,14801)
        141          3         41  7.32733099E-02                    1_GWF-(1,26665)  1.06074988E-03                    1_GWF-(1,14801)
        142          3         42 -9.31758151E-02                    1_GWF-(1,26665)  2.74001364E-04                    1_GWF-(1,10961)
        143          3         43 -9.23675401E-02                    1_GWF-(1,26666)  1.47636751E-03                    1_GWF-(1,14800)
        144          3         44  5.59429098E-02                    1_GWF-(1,26588)  2.12850457E-03                    1_GWF-(1,14801)
        145          3         45  8.36855517E-02                    1_GWF-(1,26665) -2.84638395E-03                    1_GWF-(1,14801)
        146          3         46  6.64714074E-02                    1_GWF-(1,26666) -3.05737655E-03                    1_GWF-(1,14800)
        147          3         47 -4.58456864E-02                    1_GWF-(1,26482) -2.99126616E-03                    1_GWF-(1,14801)
        148          3         48 -4.12891919E-02                    1_GWF-(1,26648)  2.15324135E-03                    1_GWF-(1,14801)
        149          3         49 -5.14425240E-02                    1_GWF-(1,26649) -1.87802659E-03                    1_GWF-(1,14801)
        150          3         50 -4.89169279E-02                    1_GWF-(1,26466) -1.25055673E-03                    1_GWF-(1,14800)
        151          4          1 -2.88368511E-02                    1_GWF-(1,11439) -8.73955856E-04                    1_GWF-(1,14801)
        152          4          2 -2.68177944E-02                    1_GWF-(1,11436)  8.83596425E-04                    1_GWF-(1,14801)
        153          4          3 -1.99665331E-02                    1_GWF-(1,26217) -9.25077493E-04                    1_GWF-(1,14801)
        154          4          4 -2.01712220E-02                    1_GWF-(1,26218) -8.73235062E-04                    1_GWF-(1,14800)
        155          4          5  1.81387962E-02                    1_GWF-(1,26218) -6.89143284E-04                    1_GWF-(1,14801)
        156          4          6 -1.88262960E-02                    1_GWF-(1,26218) -4.61266738E-04                    1_GWF-(1,14800)
        157          4          7 -1.60557288E-02                    1_GWF-(1,26217)  2.04157826E-04                    1_GWF-(1,14800)
        158          4          8 -1.37514710E-02                    1_GWF-(1,26665) -1.05093986E-04                    1_GWF-(1,11426)
        159          4          9  1.66290347E-02                    1_GWF-(1,26665)  2.20523076E-04                    1_GWF-(1,14801)
        160          4         10 -1.62664058E-02                    1_GWF-(1,26665)  2.52161080E-04                    1_GWF-(1,14800)
        161          4         11  1.59304957E-02                    1_GWF-(1,26665)  1.62189816E-04                    1_GWF-(1,14801)
        162          4         12 -7.80133076E-03                    1_GWF-(1,26649)  8.44398671E-05                    1_GWF-(1,14801)
        163          4         13  7.47014034E-03                    1_GWF-(1,26649)  1.82117746E-04                    1_GWF-(1,14800)
        164          4         14  8.95725663E-03                    1_GWF-(1,26622)  1.90526712E-04                    1_GWF-(1,14801)
        165          4         15  8.03841382E-03                    1_GWF-(1,26623)  1.23985478E-04                    1_GWF-(1,14800)
        166          4         16 -6.85248892E-03                    1_GWF-(1,26623) -4.77007740E-05                    1_GWF-(1,11516)
        167          4         17 -6.96614538E-03                    1_GWF-(1,26622)  1.60596589E-04                    1_GWF-(1,14801)
        168          4         18 -4.50960054E-03                    1_GWF-(1,26486)  2.30913517E-04                    1_GWF-(1,14800)
        169          4         19  5.99762881E-03                    1_GWF-(1,26588)  2.40682805E-04                    1_GWF-(1,14801)
        170          4         20 -7.66253228E-03                    1_GWF-(1,26588)  1.32665904E-04                    1_GWF-(1,14800)
        171          4         21  7.23038329E-03                    1_GWF-(1,26420) -6.26152331E-05                    1_GWF-(1,10961)
        172          4         22  5.18096681E-03                    1_GWF-(1,26487)  1.92229085E-04                    1_GWF-(1,14801)
        173          4         23 -4.06368150E-03                    1_GWF-(1,26649) -3.05116711E-04                    1_GWF-(1,14801)
        174          4         24 -4.40267115E-03                    1_GWF-(1,26420) -3.70367904E-04                    1_GWF-(1,14800)
        175          4         25 -6.71514618E-03                    1_GWF-(1,26623) -3.29993491E-04                    1_GWF-(1,14801)
        176          4         26 -6.65403132E-03                    1_GWF-(1,26589) -1.53126864E-04                    1_GWF-(1,14800)
        177          4         27 -7.01350870E-03                    1_GWF-(1,26588)  1.04844232E-04                    1_GWF-(1,14801)
        178          4         28  6.81561453E-03                    1_GWF-(1,26588) -2.49402943E-04                    1_GWF-(1,14801)
        179          4         29 -4.15347976E-03                    1_GWF-(1,26544) -2.58547441E-04                    1_GWF-(1,14800)
        180          4         30  2.68597262E-03                    1_GWF-(1,26544)  2.20867836E-04                    1_GWF-(1,14800)
        181          4         31  3.99332763E-03                    1_GWF-(1,26486)  1.59065047E-04                    1_GWF-(1,14801)
        182          4         32 -3.40064237E-03                    1_GWF-(1,26422)  8.17437274E-05                    1_GWF-(1,14800)
        183          4         33  4.39650107E-03                    1_GWF-(1,26422)  3.01591397E-05                    1_GWF-(1,10966)
        184          4         34 -4.43268428E-03                    1_GWF-(1,26422)  8.22706677E-05                    1_GWF-(1,14801)
        185          4         35 -4.78233102E-03                    1_GWF-(1,26350)  1.38357887E-04                    1_GWF-(1,14800)
        186          4         36 -4.80668799E-03                    1_GWF-(1,26422)  1.62051562E-04                    1_GWF-(1,14801)
        187          4         37 -3.38214316E-03                    1_GWF-(1,26350)  1.58718988E-04                    1_GWF-(1,14800)
        188          4         38 -2.22355938E-03                    1_GWF-(1,26422)  1.56908829E-04                    1_GWF-(1,14801)
        189          4         39 -1.85952662E-03                    1_GWF-(1,22908)  1.30979116E-04                    1_GWF-(1,14800)
        190          4         40 -1.62010127E-03                    1_GWF-(1,22911)  1.19931291E-04                    1_GWF-(1,14801)
        191          4         41  1.57663708E-03                    1_GWF-(1,26394)  1.05476052E-04                    1_GWF-(1,14800)
        192          4         42 -1.46790795E-03                    1_GWF-(1,26663)  9.20465280E-05                    1_GWF-(1,14801)
        193          4         43 -1.57128323E-03                    1_GWF-(1,26674)  7.72135399E-05                    1_GWF-(1,14800)
        194          4         44  1.92859445E-03                    1_GWF-(1,26350)  6.36092842E-05                    1_GWF-(1,14801)
        195          4         45  1.60360456E-03                    1_GWF-(1,26218)  4.65826057E-05                    1_GWF-(1,14800)
        196          4         46  1.53485299E-03                    1_GWF-(1,26487)  6.99707881E-05                    1_GWF-(1,10966)
        197          4         47  9.44190334E-04                    1_GWF-(1,25864) -5.10178647E-05                    1_GWF-(1,10966)
        198          4         48  1.27726141E-03                    1_GWF-(1,26672)  6.56536012E-05                    1_GWF-(1,10966)
        199          4         49 -1.28478169E-03                    1_GWF-(1,26672)  4.67373653E-05                    1_GWF-(1,10961)
        200          4         50 -1.23660901E-03                    1_GWF-(1,26663)  5.04492617E-05                    1_GWF-(1,10966)
        201          5          1 -1.03032831E-02                    1_GWF-(1,11426)  5.59519691E-05                    1_GWF-(1,10745)
        202          5          2 -4.72481872E-03                    1_GWF-(1,11421) -5.06315623E-05                    1_GWF-(1,10745)
        203          5          3 -2.69738408E-03                    1_GWF-(1,11422)  2.20184614E-05                    1_GWF-(1,10745)
        204          5          4 -1.78702683E-03                    1_GWF-(1,11412)  2.42745924E-05                    1_GWF-(1,10966)
        205          5          5 -1.24205391E-03                    1_GWF-(1,11414)  1.93425725E-05                    1_GWF-(1,10965)
        206          5          6 -7.24483584E-04                    1_GWF-(1,10696)  2.52472693E-05                    1_GWF-(1,10966)
        207          5          7  8.02076742E-04                    1_GWF-(1,11439)  2.00034746E-05                    1_GWF-(1,10961)
        208          5          8  6.73102865E-04                    1_GWF-(1,26672)  3.28766619E-05                    1_GWF-(1,10966)
        209          5          9 -9.11959208E-04                    1_GWF-(1,26648)  2.70061683E-05                    1_GWF-(1,10965)
        210          5         10 -1.24891909E-03                    1_GWF-(1,26649)  3.71603321E-05                    1_GWF-(1,10966)
        211          5         11  1.45985968E-03                    1_GWF-(1,26649)  2.41141544E-05                    1_GWF-(1,10965)
        212          5         12 -1.85114337E-03                    1_GWF-(1,26649)  1.66820751E-05                    1_GWF-(1,10966)
        213          5         13  2.03808015E-03                    1_GWF-(1,26649)  9.66769846E-06                    1_GWF-(1,11044)
        214          5         14  1.85186481E-03                    1_GWF-(1,26622) -1.84115969E-05                    1_GWF-(1,10966)
        215          5         15  1.56753158E-03                    1_GWF-(1,26623)  1.83600864E-05                    1_GWF-(1,10966)
        216          5         16  1.01059598E-03                    1_GWF-(1,26622)  1.51917547E-05                    1_GWF-(1,10961)
        217          5         17  9.47713460E-04                    1_GWF-(1,26623) -1.13698903E-05                    1_GWF-(1,10953)
        218          5         18  1.01962905E-03                    1_GWF-(1,26486) -1.90274492E-05                    1_GWF-(1,10961)
        219          5         19  1.14803632E-03                    1_GWF-(1,26487) -1.26631745E-05                    1_GWF-(1,10966)
        220          5         20  1.43781476E-03                    1_GWF-(1,26486) -1.04294610E-05                    1_GWF-(1,10965)
        221          5         21 -1.29368713E-03                    1_GWF-(1,26486) -1.11436168E-05                    1_GWF-(1,10968)
        222          5         22 -8.24447296E-04                    1_GWF-(1,26487) -2.00750710E-05                    1_GWF-(1,10966)
        223          5         23 -5.67833548E-04                    1_GWF-(1,26420)  2.64530672E-05                    1_GWF-(1,10966)
        224          5         24 -6.81176431E-04                    1_GWF-(1,26422)  2.76471807E-05                    1_GWF-(1,10961)
        225          5         25 -6.96425270E-04                    1_GWF-(1,26350) -2.04937834E-05                    1_GWF-(1,10961)
        226          5         26 -8.73328102E-04                    1_GWF-(1,26422) -2.57730639E-05                    1_GWF-(1,10966)
        227          5         27  1.04142244E-03                    1_GWF-(1,26422)  2.11174255E-05                    1_GWF-(1,10966)
        228          5         28 -1.06179265E-03                    1_GWF-(1,26422) -1.19000887E-05                    1_GWF-(1,10967)
        229          5         29  8.63926353E-04                    1_GWF-(1,26422)  9.68350886E-06                    1_GWF-(1,11172)
        230          5         30 -7.75110567E-04                    1_GWF-(1,26588) -1.22538782E-05                    1_GWF-(1,10961)
        231          5         31  8.30204822E-04                    1_GWF-(1,26588) -1.67888629E-05                    1_GWF-(1,10966)
        232          5         32 -8.21711798E-04                    1_GWF-(1,26588) -1.31431561E-05                    1_GWF-(1,10965)
        233          5         33  6.81814616E-04                    1_GWF-(1,26588) -6.77545534E-06                    1_GWF-(1,10975)
        234          5         34 -5.93636335E-04                    1_GWF-(1,26350) -7.33048762E-06                    1_GWF-(1,10963)
        235          5         35 -4.74212577E-04                    1_GWF-(1,26422) -9.85847348E-06                    1_GWF-(1,10961)
        236          5         36  3.34204617E-04                    1_GWF-(1,26422) -1.44195445E-05                    1_GWF-(1,10966)
        237          5         37  2.05802350E-04                    1_GWF-(1,26350)  1.94718707E-05                    1_GWF-(1,10966)
        238          5         38  1.50401274E-04                    1_GWF-(1,26674) -2.28805295E-05                    1_GWF-(1,10966)
        239          5         39 -1.31631112E-04                    1_GWF-(1,11872)  2.78262318E-05                    1_GWF-(1,10966)
        240          5         40 -1.37245979E-04                    1_GWF-(1,11864) -2.84833115E-05                    1_GWF-(1,10966)
        241          5         41 -1.81022173E-04                    1_GWF-(1,26218)  2.85539048E-05                    1_GWF-(1,10966)
        242          5         42 -2.47263532E-04                    1_GWF-(1,26217) -2.29124814E-05                    1_GWF-(1,10966)
        243          5         43 -2.74473133E-04                    1_GWF-(1,26218)  1.66611195E-05                    1_GWF-(1,10966)
        244          5         44  2.60616807E-04                    1_GWF-(1,26218) -1.13630981E-05                    1_GWF-(1,10957)
        245          5         45  3.44390656E-04                    1_GWF-(1,26666) -7.38731403E-06                    1_GWF-(1,10958)
        246          5         46  5.57843492E-04                    1_GWF-(1,26665)  5.99288780E-06                    1_GWF-(1,10987)
        247          5         47  5.67708634E-04                    1_GWF-(1,26666)  6.68340460E-06                    1_GWF-(1,10968)
        248          5         48  5.70426620E-04                    1_GWF-(1,26665)  1.00911110E-05                    1_GWF-(1,10966)
        249          5         49 -4.12056345E-04                    1_GWF-(1,26665) -8.49807578E-06                    1_GWF-(1,10967)
        250          5         50 -2.72976669E-04                    1_GWF-(1,26666)  7.26526153E-06                    1_GWF-(1,10966)
        251          6          1 -2.58381755E-04                    1_GWF-(1,11933)  6.84806273E-06                    1_GWF-(1,10965)
        252          6          2 -2.37584067E-04                    1_GWF-(1,26218)  7.62611131E-06                    1_GWF-(1,10966)
        253          6          3 -3.16621499E-04                    1_GWF-(1,26665) -3.61653753E-06                    1_GWF-(1,10966)
        254          6          4  2.89097639E-04                    1_GWF-(1,26665)  3.21896640E-06                    1_GWF-(1,10987)
        255          6          5 -2.78392418E-04                    1_GWF-(1,26665)  6.13980216E-06                    1_GWF-(1,10966)
        256          6          6  2.10439361E-04                    1_GWF-(1,26665) -6.09105367E-06                    1_GWF-(1,10966)
        257          6          7 -1.89363044E-04                    1_GWF-(1,26218)  5.00252494E-06                    1_GWF-(1,10966)
        258          6          8 -1.44889931E-04                    1_GWF-(1,26420)  3.65455177E-06                    1_GWF-(1,10961)
        259          6          9  1.81750953E-04                    1_GWF-(1,26486) -1.32196230E-06                    1_GWF-(1,10954)
        260          6         10  1.92835928E-04                    1_GWF-(1,26487) -3.70070104E-06                    1_GWF-(1,10961)
        261          6         11  1.37114862E-04                    1_GWF-(1,26486)  2.80402943E-06                    1_GWF-(1,10961)
        262          6         12  1.09304234E-04                    1_GWF-(1,26217)  1.33317896E-06                    1_GWF-(1,14800)
        263          6         13  1.21884344E-04                    1_GWF-(1,26218)  2.07825238E-06                    1_GWF-(1,11138)
        264          6         14  9.79673423E-05                    1_GWF-(1,26217)  2.00076311E-06                    1_GWF-(1,10961)
        265          6         15  6.96491344E-05                    1_GWF-(1,26622) -1.94530181E-06                    1_GWF-(1,10961)
        266          6         16  1.02046501E-04                    1_GWF-(1,26649) -2.28846081E-06                    1_GWF-(1,10966)
        267          6         17 -1.20855956E-04                    1_GWF-(1,26649)  1.49760879E-06                    1_GWF-(1,10967)
        268          6         18 -1.19520511E-04                    1_GWF-(1,26622)  1.23769298E-06                    1_GWF-(1,11141)
        269          6         19  9.11186439E-05                    1_GWF-(1,26622) -2.57694057E-06                    1_GWF-(1,10966)
        270          6         20  5.70711161E-05                    1_GWF-(1,26486)  2.54335217E-06                    1_GWF-(1,10966)
        271          6         21  4.84410359E-05                    1_GWF-(1,25719) -3.76875416E-06                    1_GWF-(1,10966)
        272          6         22  4.22358163E-05                     1_GWF-(1,2641) -3.51002608E-06                    1_GWF-(1,11132)
        273          6         23 -5.39780728E-05                    1_GWF-(1,26486) -4.11773423E-06                    1_GWF-(1,10966)
        274          6         24  7.03103899E-05                    1_GWF-(1,26422)  4.12811977E-06                    1_GWF-(1,10966)
        275          6         25 -8.55358231E-05                    1_GWF-(1,26422) -3.83423903E-06                    1_GWF-(1,10966)
        276          6         26  9.70042586E-05                    1_GWF-(1,26422)  1.50535971E-06                    1_GWF-(1,10966)
        277          6         27 -9.19983108E-05                    1_GWF-(1,26422)  1.13027742E-06                    1_GWF-(1,10966)
        278          6         28  6.75254731E-05                    1_GWF-(1,26543) -2.06471578E-06                    1_GWF-(1,10966)
        279          6         29  8.43200649E-05                    1_GWF-(1,26588) -2.62637817E-06                    1_GWF-(1,10961)
        280          6         30 -7.63412988E-05                    1_GWF-(1,26588) -1.84295832E-06                    1_GWF-(1,10966)
        281          6         31  6.86950005E-05                    1_GWF-(1,26588) -6.70910233E-07                    1_GWF-(1,11043)
        282          6         32 -5.26354443E-05                    1_GWF-(1,26588) -1.45312930E-06                    1_GWF-(1,10961)
        283          6         33  4.37074375E-05                    1_GWF-(1,26422) -2.83151429E-06                    1_GWF-(1,10966)
        284          6         34 -3.90268642E-05                    1_GWF-(1,26486)  3.13536485E-06                    1_GWF-(1,10966)
        285          6         35 -3.19369525E-05                    1_GWF-(1,26350) -3.19320928E-06                    1_GWF-(1,10966)
        286          6         36 -3.09735170E-05                    1_GWF-(1,26422)  3.72305963E-06                    1_GWF-(1,10966)
        287          6         37 -2.68377198E-05                    1_GWF-(1,26350) -4.06534198E-06                    1_GWF-(1,10966)
        288          6         38 -2.30756923E-05                    1_GWF-(1,26422)  4.12496367E-06                    1_GWF-(1,10966)
        289          6         39  1.83750153E-05                    1_GWF-(1,25786) -3.44822623E-06                    1_GWF-(1,10966)
        290          6         40  1.99784975E-05                    1_GWF-(1,25768)  3.11000494E-06                    1_GWF-(1,10966)
        291          6         41  2.82998397E-05                    1_GWF-(1,26649) -1.55524741E-06                    1_GWF-(1,10966)
        292          6         42  3.50950690E-05                    1_GWF-(1,26486)  2.83310330E-07                    1_GWF-(1,11060)
        293          6         43  3.78303417E-05                    1_GWF-(1,26588)  1.20602153E-06                    1_GWF-(1,10966)
        294          6         44  3.21242218E-05                    1_GWF-(1,26486)  1.18913522E-06                    1_GWF-(1,10965)
        295          6         45  2.38453428E-05                    1_GWF-(1,26487)  1.37655338E-06                    1_GWF-(1,10966)
        296          6         46  2.29159943E-05                    1_GWF-(1,26486) -7.80342380E-07                    1_GWF-(1,10966)
        297          6         47  1.75232907E-05                    1_GWF-(1,11414)  7.07704478E-07                    1_GWF-(1,10966)
        298          6         48  1.82205293E-05                    1_GWF-(1,11412)  3.05451144E-07                    1_GWF-(1,10963)
        299          6         49  2.02334447E-05                    1_GWF-(1,26623)  4.45401770E-07                    1_GWF-(1,10965)
        300          6         50 -1.93438039E-05                    1_GWF-(1,26672)  1.19133111E-06                    1_GWF-(1,10966)
        301          7          1 -2.18980232E-05                    1_GWF-(1,11421) -6.58861062E-07                    1_GWF-(1,10966)
        302          7          2 -2.20259700E-05                    1_GWF-(1,11426)  6.16021512E-07                    1_GWF-(1,10966)
        303          7          3 -1.81136881E-05                    1_GWF-(1,26487)  3.53103909E-07                    1_GWF-(1,10965)
        304          7          4 -2.64526544E-05                    1_GWF-(1,26420)  1.86378811E-07                    1_GWF-(1,11063)
        305          7          5 -3.40235512E-05                    1_GWF-(1,26487)  3.96944714E-07                    1_GWF-(1,10966)
        306          7          6 -2.84020048E-05                    1_GWF-(1,26486)  4.25289629E-07                    1_GWF-(1,10965)
        307          7          7  1.90093726E-05                    1_GWF-(1,26649)  4.71855359E-07                    1_GWF-(1,10966)
        308          7          8 -2.01043473E-05                    1_GWF-(1,26649) -1.86099185E-07                    1_GWF-(1,11426)
        309          7          9 -1.85564453E-05                    1_GWF-(1,26622)  2.23258347E-07                    1_GWF-(1,10965)
        310          7         10  1.95744917E-05                    1_GWF-(1,26622)  5.20983311E-07                    1_GWF-(1,10966)
        311          7         11 -2.41418572E-05                    1_GWF-(1,26622) -3.25973961E-07                    1_GWF-(1,10966)
        312          7         12  2.22088006E-05                    1_GWF-(1,26622)  2.18559142E-07                    1_GWF-(1,10967)
        313          7         13  2.07044059E-05                    1_GWF-(1,26623)  2.40727534E-07                    1_GWF-(1,11150)
        314          7         14  1.65706958E-05                    1_GWF-(1,26486) -3.57686610E-07                    1_GWF-(1,10966)
        315          7         15  2.03840021E-05                    1_GWF-(1,26487) -2.86569020E-07                    1_GWF-(1,10961)
        316          7         16  2.16303429E-05                    1_GWF-(1,26486)  2.12655688E-07                    1_GWF-(1,10961)
        317          7         17  1.86904155E-05                    1_GWF-(1,26487)  1.65925080E-07                    1_GWF-(1,10961)
        318          7         18  1.43524753E-05                    1_GWF-(1,26543) -3.02371411E-07                    1_GWF-(1,10961)
        319          7         19  1.17910329E-05                    1_GWF-(1,26588)  3.38355480E-07                    1_GWF-(1,10965)
        320          7         20 -1.51084124E-05                    1_GWF-(1,26588)  5.06547403E-07                    1_GWF-(1,10966)
        321          7         21  1.78624713E-05                    1_GWF-(1,26588) -3.40484834E-07                    1_GWF-(1,10966)
        322          7         22 -2.11306082E-05                    1_GWF-(1,26588) -1.99392635E-07                    1_GWF-(1,11137)
        323          7         23 -1.48466340E-05                    1_GWF-(1,26543)  3.70034826E-07                    1_GWF-(1,10966)
        324          7         24 -1.31203186E-05                    1_GWF-(1,26588)  4.94823442E-07                    1_GWF-(1,10961)
        325          7         25 -6.37906318E-06                    1_GWF-(1,26543) -5.38283601E-07                    1_GWF-(1,10961)
        326          7         26 -5.54558132E-06                      1_GWF-(1,663) -8.09953992E-07                    1_GWF-(1,10966)
        327          7         27 -5.12874273E-06                     1_GWF-(1,7439)  6.79800693E-07                    1_GWF-(1,10966)
        328          7         28  6.61570075E-06                    1_GWF-(1,26422) -8.11154734E-07                    1_GWF-(1,10966)
        329          7         29  8.03081529E-06                    1_GWF-(1,26350) -5.87497012E-07                    1_GWF-(1,10965)
        330          7         30  1.03967862E-05                    1_GWF-(1,26422) -6.52753034E-07                    1_GWF-(1,10966)
        331          7         31  1.14522548E-05                    1_GWF-(1,26350)  3.77910997E-07                    1_GWF-(1,10966)
        332          7         32  1.22454028E-05                    1_GWF-(1,26422) -2.22615664E-07                    1_GWF-(1,10966)
        333          7         33 -1.05519193E-05                    1_GWF-(1,26422)  8.09384830E-08                    1_GWF-(1,11132)
        334          7         34 -9.63781157E-06                    1_GWF-(1,26350)  2.27945089E-07                    1_GWF-(1,10966)
        335          7         35 -7.81983207E-06                    1_GWF-(1,26422) -3.13555403E-07                    1_GWF-(1,10966)
        336          7         36 -7.26470717E-06                    1_GWF-(1,26420)  3.95160759E-07                    1_GWF-(1,10966)
        337          7         37 -8.26243949E-06                    1_GWF-(1,26487) -2.48822466E-07                    1_GWF-(1,10966)
        338          7         38 -1.02611436E-05                    1_GWF-(1,26486)  6.21791955E-08                    1_GWF-(1,11049)
        339          7         39  8.55062296E-06                    1_GWF-(1,26486)  2.76773465E-07                    1_GWF-(1,10966)
        340          7         40 -8.04208909E-06                    1_GWF-(1,26486) -4.40233428E-07                    1_GWF-(1,10966)
        341          7         41 -5.43242326E-06                    1_GWF-(1,26544)  4.36370347E-07                    1_GWF-(1,10966)
        342          7         42 -4.37602309E-06                    1_GWF-(1,26486) -4.08824768E-07                    1_GWF-(1,10966)
        343          7         43 -4.99506200E-06                    1_GWF-(1,26649)  2.57471453E-07                    1_GWF-(1,10966)
        344          7         44  6.99610371E-06                    1_GWF-(1,26649)  8.32473858E-08                    1_GWF-(1,10958)
        345          7         45  8.41093719E-06                    1_GWF-(1,26622) -1.56183039E-07                    1_GWF-(1,10966)
        346          7         46  7.01796794E-06                    1_GWF-(1,26649)  2.41619300E-07                    1_GWF-(1,10966)
        347          7         47  5.10780802E-06                    1_GWF-(1,26622) -2.00707037E-07                    1_GWF-(1,10966)
        348          7         48  3.96761880E-06                    1_GWF-(1,26218)  1.26273727E-07                    1_GWF-(1,10966)
        349          7         49  4.19135949E-06                    1_GWF-(1,26217)  7.47010405E-08                    1_GWF-(1,10965)
        350          7         50  4.31010280E-06                    1_GWF-(1,26218)  5.12790512E-08                    1_GWF-(1,14801)
        351          8          1 -4.24698687E-06                    1_GWF-(1,26218) -6.14849112E-08                    1_GWF-(1,14801)
        352          8          2 -4.41469200E-06                    1_GWF-(1,26217)  4.46122885E-08                    1_GWF-(1,10966)
        353          8          3 -3.69269521E-06                    1_GWF-(1,26218) -4.23930959E-08                    1_GWF-(1,10966)
        354          8          4 -3.41570664E-06                    1_GWF-(1,26622)  4.28268062E-08                    1_GWF-(1,10966)
        355          8          5 -4.09740312E-06                    1_GWF-(1,26649)  3.46245262E-08                    1_GWF-(1,10961)
        356          8          6 -4.90250271E-06                    1_GWF-(1,26622)  3.10533759E-08                    1_GWF-(1,10967)
        357          8          7  4.23090688E-06                    1_GWF-(1,26622) -2.81397297E-08                    1_GWF-(1,10961)
        358          8          8  3.11436624E-06                    1_GWF-(1,26649) -3.00484693E-08                    1_GWF-(1,10966)
        359          8          9 -2.29312594E-06                    1_GWF-(1,26665) -2.17098609E-08                    1_GWF-(1,10961)
        360          8         10  2.48149022E-06                    1_GWF-(1,26665) -2.08719084E-08                    1_GWF-(1,10963)
        361          8         11  2.19609344E-06                    1_GWF-(1,26543) -2.19222265E-08                    1_GWF-(1,10966)
        362          8         12  2.47924324E-06                    1_GWF-(1,26588)  2.29463091E-08                    1_GWF-(1,10966)
        363          8         13 -2.02362758E-06                    1_GWF-(1,26588)  2.19972687E-08                    1_GWF-(1,10968)
        364          8         14  2.05979535E-06                    1_GWF-(1,26588)  2.02306540E-08                    1_GWF-(1,14798)
        365          8         15 -2.07875312E-06                    1_GWF-(1,26588)  2.10184777E-08                    1_GWF-(1,14801)
        366          8         16  1.63974773E-06                    1_GWF-(1,26588)  2.08447897E-08                    1_GWF-(1,14800)
        367          8         17 -1.63633018E-06                    1_GWF-(1,26487) -1.91472419E-08                    1_GWF-(1,11043)
        368          8         18 -1.80514740E-06                    1_GWF-(1,26486)  2.23622432E-08                    1_GWF-(1,14799)
        369          8         19  1.98621165E-06                    1_GWF-(1,26486)  2.46830733E-08                    1_GWF-(1,14800)
        370          8         20  2.04222764E-06                    1_GWF-(1,26487) -2.05710904E-08                    1_GWF-(1,10960)
        371          8         21 -2.07098221E-06                    1_GWF-(1,26487) -2.08919425E-08                    1_GWF-(1,11044)
        372          8         22  1.65540777E-06                    1_GWF-(1,26665) -2.14631076E-08                    1_GWF-(1,10968)
        373          8         23 -1.15373605E-06                    1_GWF-(1,26487)  2.02066439E-08                    1_GWF-(1,14801)
        374          8         24 -8.50633113E-07                    1_GWF-(1,26420) -3.00863216E-08                    1_GWF-(1,10957)
        375          9          1  8.43186678E-07                    1_GWF-(1,26420) -1.74723053E-08                    1_GWF-(1,10961)
 --------------------------------------------------------------------------------------------------------------------------------------



 MEMORY MANAGER TOTAL STORAGE BY DATA TYPE, IN MEGABYTES
 -------------------------------
                    ALLOCATED   
 DATA TYPE           MEMORY     
 -------------------------------
 Character        4.66090000E-02
 Logical          4.40000000E-05
 Integer          5.2037920     
 Real             11.901376     
 -------------------------------
 Total            17.151821     
 -------------------------------


 
 Run end date and time (yyyy/mm/dd hh:mm:ss): 2022/05/30 22:21:10
 Elapsed run time:  0.521 Seconds
 Normal termination of simulation.
