                                   MODFLOW 6
                U.S. GEOLOGICAL SURVEY MODULAR HYDROLOGIC MODEL
                            VERSION 6.2.2 07/30/2021

   MODFLOW 6 compiled Jul 31 2021 14:22:53 with IFORT compiler (ver. 19.10.3)

This software has been approved for release by the U.S. Geological 
Survey (USGS). Although the software has been subjected to rigorous 
review, the USGS reserves the right to update the software as needed 
pursuant to further analysis and review. No warranty, expressed or 
implied, is made by the USGS or the U.S. Government as to the 
functionality of the software and related material nor shall the 
fact of release constitute any such warranty. Furthermore, the 
software is released on condition that neither the USGS nor the U.S. 
Government shall be held liable for any damages resulting from its 
authorized or unauthorized use. Also refer to the USGS Water 
Resources Software User Rights Notice for complete use, copyright, 
and distribution information.


System command used to initiate simulation:
mf6

MODFLOW was compiled using uniform precision.

Real Variables
  KIND: 8
  TINY (smallest non-zero value):    2.225074-308
  HUGE (largest value):    1.797693+308
  PRECISION: 15
  BIT SIZE: 64

Integer Variables
  KIND: 4
  HUGE (largest value): 2147483647
  BIT SIZE: 32

Long Integer Variables
  KIND: 8
  HUGE (largest value): 9223372036854775807
  BIT SIZE: 64

Logical Variables
  KIND: 4
  BIT SIZE: 32
 

 OPENED mfsim.nam
 FILE TYPE:NAM   UNIT 1001   STATUS:OLD                 
 FORMAT:FORMATTED              ACCESS:SEQUENTIAL          
 ACTION:READ                

 # File generated by Flopy version 3.3.5 on 06/01/2022 at 13:18:18.

 READING SIMULATION OPTIONS
 END OF SIMULATION OPTIONS

 READING SIMULATION TIMING

 OPENED mfsim.tdis
 FILE TYPE:TDIS   UNIT 1002   STATUS:OLD                 
 FORMAT:FORMATTED              ACCESS:SEQUENTIAL          
 ACTION:READ                


 TDIS -- TEMPORAL DISCRETIZATION PACKAGE,
 VERSION 1 : 11/13/2014 - INPUT READ FROM UNIT 1002
 # File generated by Flopy version 3.3.5 on 06/01/2022 at 13:18:18.
 PROCESSING TDIS OPTIONS
    SIMULATION TIME UNIT IS SECONDS
 END OF TDIS OPTIONS
 PROCESSING TDIS DIMENSIONS
    1 STRESS PERIOD(S) IN SIMULATION
 END OF TDIS DIMENSIONS
 PROCESSING TDIS PERIODDATA


 STRESS PERIOD     LENGTH       TIME STEPS     MULTIPLIER FOR DELT
 ----------------------------------------------------------------------------
        1         2.000000          1                    1.000
 END OF TDIS PERIODDATA
 END OF SIMULATION TIMING

 READING SIMULATION MODELS
    GWF6 model ML will be created as model 1
 END OF SIMULATION MODELS

 READING SIMULATION EXCHANGES
 END OF SIMULATION EXCHANGES

 READING SOLUTIONGROUP

 Creating solution: SLN_1           

 OPENED mfsim.ims
 FILE TYPE:IMS   UNIT 1015   STATUS:OLD                 
 FORMAT:FORMATTED              ACCESS:SEQUENTIAL          
 ACTION:READ                

 END OF SIMULATION SOLUTIONGROUP

 IMS -- ITERATIVE MODEL SOLUTION PACKAGE, VERSION 6, 4/28/2017
         INPUT READ FROM UNIT 1015
 # File generated by Flopy version 3.3.5 on 06/01/2022 at 13:18:18.

 PROCESSING IMS OPTIONS
 END OF IMS OPTIONS

 PROCESSING IMS NONLINEAR
 END OF IMS NONLINEAR DATA
 ***UNDER-RELAXATION WILL NOT BE USED***
 
 ***IMS LINEAR SOLVER WILL BE USED***

 IMSLINEAR -- UNSTRUCTURED LINEAR SOLUTION PACKAGE, VERSION 8, 04/28/2017

 PROCESSING LINEAR DATA
 END OF LINEAR DATA
 
 OUTER ITERATION CONVERGENCE CRITERION    (DVCLOSE) =    0.100000E-04
 MAXIMUM NUMBER OF OUTER ITERATIONS        (MXITER) = 100
 SOLVER PRINTOUT INDEX                     (IPRIMS) = 2
 NONLINEAR ITERATION METHOD            (NONLINMETH) = 0
 LINEAR SOLUTION METHOD                   (LINMETH) = 1

       SOLUTION BY THE        CONJUGATE-GRADIENT       METHOD
 ------------------------------------------------------------------
 MAXIMUM OF 100 CALLS OF SOLUTION ROUTINE
 MAXIMUM OF 50 INTERNAL ITERATIONS PER CALL TO SOLUTION ROUTINE
 LINEAR ACCELERATION METHOD            = CG        
 MATRIX PRECONDITIONING TYPE           = INCOMPLETE LU       
 MATRIX SCALING APPROACH               = NO SCALING          
 MATRIX REORDERING APPROACH            = ORIGINAL ORDERING        
 NUMBER OF ORTHOGONALIZATIONS          = 0
 HEAD CHANGE CRITERION FOR CLOSURE     =    0.10000E-05
 RESIDUAL CHANGE CRITERION FOR CLOSURE =    0.10000E-04
 RESIDUAL CONVERGENCE OPTION           = 1
 RESIDUAL CONVERGENCE NORM             = INFINITY NORM S 
 RELAXATION FACTOR                     =    0.00000E+00



 
    Solving:  Stress period:     1    Time step:     1
 
1
                            STRESS PERIOD NO. 1, LENGTH =   2.000000    
                            -----------------------------------------------
                            NUMBER OF TIME STEPS = 1
                            MULTIPLIER FOR DELT =     1.000
                            INITIAL TIME STEP SIZE =   2.000000    

 SLN_1 OUTER ITERATION SUMMARY
 ----------------------------------------------------------------------------------------------------------
                                OUTER      INNER                    STEP   MAXIMUM CHANGE MODEL-(CELLID) OR
 OUTER ITERATION STEP       ITERATION  ITERATION  MAXIMUM CHANGE SUCCESS             MODEL-PACKAGE-(NUMBER)
 ----------------------------------------------------------------------------------------------------------
 Model                              1         50       27.308728                            1_GWF-(1,26519)
 Model                              2         50      -22.371424                            1_GWF-(1,26519)
 Model                              3         50       1.6775754                            1_GWF-(1,24191)
 Model                              4         50     -0.32854072                             1_GWF-(1,8836)
 Model                              5         50      0.10555503                            1_GWF-(1,23070)
 Model                              6         50 -3.59820375E-02                             1_GWF-(1,8260)
 Model                              7         50  1.12329958E-02                            1_GWF-(1,21474)
 Model                              8         50 -4.18462484E-03                            1_GWF-(1,24775)
 Model                              9         50  1.44552421E-03                            1_GWF-(1,21474)
 Model                             10         50 -5.11895496E-04                            1_GWF-(1,24775)
 Model                             11         50  1.82416592E-04                            1_GWF-(1,21480)
 Model                             12         50 -6.25706075E-05                            1_GWF-(1,24774)
 Model                             13         50  2.30434029E-05                            1_GWF-(1,21480)
 Model                             14          7 -4.56834891E-06                            1_GWF-(1,25499)
 Model                             15          4  2.08588745E-06                            1_GWF-(1,20572)
 Model                             16          1 -7.47066338E-07       *                    1_GWF-(1,26622)
 ----------------------------------------------------------------------------------------------------------


 16 CALLS TO NUMERICAL SOLUTION IN TIME STEP 1 STRESS PERIOD 1
 662 TOTAL ITERATIONS

 SLN_1 INNER ITERATION SUMMARY
 --------------------------------------------------------------------------------------------------------------------------------------
      TOTAL      OUTER      INNER                                                            MAXIMUM                                   
  ITERATION  ITERATION  ITERATION  MAXIMUM CHANGE      MAXIMUM CHANGE MODEL-(CELLID)        RESIDUAL    MAXIMUM RESIDUAL MODEL-(CELLID)
 --------------------------------------------------------------------------------------------------------------------------------------
          1          1          1      -11.760895                    1_GWF-(1,12785)      0.58878756                    1_GWF-(1,15911)
          2          1          2       5.9163626                    1_GWF-(1,26601)      0.39574301                    1_GWF-(1,15921)
          3          1          3       6.0580514                    1_GWF-(1,26565)      0.35192252                    1_GWF-(1,15940)
          4          1          4       5.5045641                    1_GWF-(1,26510)      0.26876995                    1_GWF-(1,15975)
          5          1          5       4.0308618                    1_GWF-(1,26647)     -0.12406764                    1_GWF-(1,15912)
          6          1          6       4.0165223                    1_GWF-(1,26649) -8.10475291E-02                    1_GWF-(1,15918)
          7          1          7       3.3266989                    1_GWF-(1,26663) -9.77145787E-02                    1_GWF-(1,15948)
          8          1          8       4.3818790                    1_GWF-(1,26665) -9.69831699E-02                    1_GWF-(1,15942)
          9          1          9       4.6758985                    1_GWF-(1,26666) -6.09862738E-02                    1_GWF-(1,15940)
         10          1         10       6.4227249                    1_GWF-(1,26665) -6.10148048E-02                    1_GWF-(1,15948)
         11          1         11       4.2738672                    1_GWF-(1,26666)  6.12062705E-02                    1_GWF-(1,15940)
         12          1         12       3.3241733                    1_GWF-(1,26649)  6.19022424E-02                    1_GWF-(1,15942)
         13          1         13       2.9908440                    1_GWF-(1,26622)  4.35213132E-02                    1_GWF-(1,15940)
         14          1         14      -2.8449251                    1_GWF-(1,26622) -3.53882090E-02                    1_GWF-(1,15921)
         15          1         15      -2.3364521                    1_GWF-(1,26623)  3.66581335E-02                    1_GWF-(1,10652)
         16          1         16      -2.1206924                    1_GWF-(1,26622)  4.21582062E-02                    1_GWF-(1,10650)
         17          1         17      -1.9813963                    1_GWF-(1,26623)  3.11917963E-02                    1_GWF-(1,14799)
         18          1         18      -2.1063892                    1_GWF-(1,26589) -3.47095264E-02                    1_GWF-(1,15941)
         19          1         19      -3.6026278                    1_GWF-(1,26588)  4.24183971E-02                    1_GWF-(1,10966)
         20          1         20      -3.8289905                    1_GWF-(1,26543)  4.51128046E-02                    1_GWF-(1,10650)
         21          1         21      -3.4237161                    1_GWF-(1,26588) -2.94355883E-02                    1_GWF-(1,11194)
         22          1         22      -3.1662519                    1_GWF-(1,26486)  3.36437219E-02                    1_GWF-(1,10652)
         23          1         23      -3.3329228                    1_GWF-(1,26487)  3.40779587E-02                    1_GWF-(1,10650)
         24          1         24      -3.4360129                    1_GWF-(1,26486)  3.25197422E-02                    1_GWF-(1,14799)
         25          1         25      -2.8660559                    1_GWF-(1,26487)  2.55169295E-02                    1_GWF-(1,10955)
         26          1         26       2.5798906                    1_GWF-(1,20913)  3.03891657E-02                    1_GWF-(1,10651)
         27          1         27       2.5279510                    1_GWF-(1,20921)  3.11900926E-02                    1_GWF-(1,15853)
         28          1         28       1.7288735                    1_GWF-(1,26487)  2.23662166E-02                    1_GWF-(1,11180)
         29          1         29       1.6728904                    1_GWF-(1,26420)  2.28834130E-02                    1_GWF-(1,10652)
         30          1         30       1.7986492                    1_GWF-(1,26422)  2.65765111E-02                    1_GWF-(1,10650)
         31          1         31       1.7928893                    1_GWF-(1,26350) -2.12291417E-02                    1_GWF-(1,10966)
         32          1         32       1.6677584                    1_GWF-(1,26422) -2.52894579E-02                    1_GWF-(1,10963)
         33          1         33       1.4276220                    1_GWF-(1,26350) -1.70964723E-02                    1_GWF-(1,10958)
         34          1         34       1.3901268                    1_GWF-(1,26422) -1.69877563E-02                    1_GWF-(1,10965)
         35          1         35       1.0916620                    1_GWF-(1,26350) -2.33444492E-02                    1_GWF-(1,10963)
         36          1         36      0.80800378                    1_GWF-(1,26422) -1.91082244E-02                    1_GWF-(1,10958)
         37          1         37     -0.88492258                    1_GWF-(1,26422) -1.57024869E-02                    1_GWF-(1,10968)
         38          1         38     -0.93628147                    1_GWF-(1,26350) -1.52262515E-02                    1_GWF-(1,11180)
         39          1         39     -0.96146617                    1_GWF-(1,26422)  1.96653362E-02                    1_GWF-(1,15942)
         40          1         40     -0.90058680                    1_GWF-(1,26350) -2.12046387E-02                    1_GWF-(1,15941)
         41          1         41     -0.75740529                    1_GWF-(1,26649)  2.04153397E-02                    1_GWF-(1,15939)
         42          1         42     -0.89277025                    1_GWF-(1,26623)  1.97516174E-02                    1_GWF-(1,15940)
         43          1         43     -0.79005634                    1_GWF-(1,26586) -1.66397157E-02                    1_GWF-(1,15940)
         44          1         44     -0.63501141                    1_GWF-(1,26623) -1.99850020E-02                    1_GWF-(1,15941)
         45          1         45      0.49023484                    1_GWF-(1,26218)  2.24619522E-02                    1_GWF-(1,15941)
         46          1         46     -0.58350688                    1_GWF-(1,20926)  1.61295006E-02                    1_GWF-(1,15940)
         47          1         47     -0.62092753                    1_GWF-(1,20933) -2.22428971E-02                    1_GWF-(1,15940)
         48          1         48     -0.69875108                    1_GWF-(1,21272) -1.88134144E-02                    1_GWF-(1,15941)
         49          1         49     -0.69977620                    1_GWF-(1,21261)  2.06335325E-02                    1_GWF-(1,15941)
         50          1         50     -0.72169506                    1_GWF-(1,26218) -2.16574021E-02                    1_GWF-(1,15941)
         51          2          1      -22.772483                    1_GWF-(1,26519)     -0.16329740                    1_GWF-(1,26458)
         52          2          2      -8.8512434                    1_GWF-(1,26569)  4.61528052E-02                    1_GWF-(1,26458)
         53          2          3      -4.0668784                    1_GWF-(1,26637)  2.55604626E-02                    1_GWF-(1,26516)
         54          2          4      -4.5029723                    1_GWF-(1,26665) -2.05290732E-02                    1_GWF-(1,26458)
         55          2          5      -3.3216438                    1_GWF-(1,26649)  1.77298564E-02                    1_GWF-(1,26458)
         56          2          6      -2.6478047                    1_GWF-(1,26589)  1.07859145E-02                    1_GWF-(1,26516)
         57          2          7      -2.3542018                    1_GWF-(1,26543) -1.07748545E-02                    1_GWF-(1,15940)
         58          2          8      -2.0861520                    1_GWF-(1,26486)  1.23495784E-02                    1_GWF-(1,15940)
         59          2          9      -1.6124592                    1_GWF-(1,26487)  1.06520203E-02                     1_GWF-(1,9291)
         60          2         10      -1.4783008                    1_GWF-(1,26350)  1.06306675E-02                     1_GWF-(1,9290)
         61          2         11      -1.2254111                    1_GWF-(1,26422)  1.05848221E-02                     1_GWF-(1,9290)
         62          2         12     -0.98468776                    1_GWF-(1,26217)  1.05263243E-02                     1_GWF-(1,9290)
         63          2         13     -0.84372991                    1_GWF-(1,26218)  1.04595851E-02                     1_GWF-(1,9290)
         64          2         14     -0.61020576                    1_GWF-(1,26649)  1.03632165E-02                     1_GWF-(1,9290)
         65          2         15     -0.70921794                    1_GWF-(1,26622)  1.01945974E-02                     1_GWF-(1,9290)
         66          2         16     -0.81435395                    1_GWF-(1,25515)  9.99059211E-03                     1_GWF-(1,9290)
         67          2         17       1.1524373                    1_GWF-(1,26350) -9.90871582E-03                    1_GWF-(1,15940)
         68          2         18       1.0694421                    1_GWF-(1,26217)  9.75346332E-03                     1_GWF-(1,9290)
         69          2         19      0.91153434                    1_GWF-(1,26218)  9.71755668E-03                     1_GWF-(1,9290)
         70          2         20     -0.58575743                    1_GWF-(1,26588)  9.69399293E-03                     1_GWF-(1,9290)
         71          2         21       1.1120718                    1_GWF-(1,26588)  9.66274328E-03                     1_GWF-(1,9290)
         72          2         22       1.4954275                    1_GWF-(1,26543)  9.49007178E-03                     1_GWF-(1,9290)
         73          2         23      0.89465280                    1_GWF-(1,26542)  9.16604814E-03                     1_GWF-(1,9291)
         74          2         24     -0.89327867                    1_GWF-(1,26422)  8.79731780E-03                     1_GWF-(1,9290)
         75          2         25      -1.1958491                    1_GWF-(1,26486)  8.42887994E-03                     1_GWF-(1,9291)
         76          2         26      -1.3382245                    1_GWF-(1,26487)  8.13079483E-03                     1_GWF-(1,9290)
         77          2         27     -0.93449502                    1_GWF-(1,26420)  7.89360847E-03                     1_GWF-(1,9291)
         78          2         28     -0.49197421                    1_GWF-(1,26543)  7.73217360E-03                     1_GWF-(1,9291)
         79          2         29     -0.47311018                    1_GWF-(1,26327)  7.59891309E-03                     1_GWF-(1,9290)
         80          2         30      0.39213490                    1_GWF-(1,26420)  8.80169211E-03                    1_GWF-(1,15941)
         81          2         31     -0.39436778                    1_GWF-(1,26184)  1.36425565E-02                    1_GWF-(1,15940)
         82          2         32     -0.41305020                    1_GWF-(1,26672)  1.79206741E-02                    1_GWF-(1,15941)
         83          2         33     -0.46274694                    1_GWF-(1,26156)  2.33630348E-02                    1_GWF-(1,15940)
         84          2         34     -0.46247066                    1_GWF-(1,25790) -2.69888706E-02                    1_GWF-(1,15940)
         85          2         35      0.66335425                    1_GWF-(1,26422)  2.73993709E-02                    1_GWF-(1,15940)
         86          2         36      0.57598931                    1_GWF-(1,26350) -2.06403181E-02                    1_GWF-(1,15940)
         87          2         37     -0.56709546                    1_GWF-(1,26350) -1.09626834E-02                    1_GWF-(1,15941)
         88          2         38      0.62752717                    1_GWF-(1,26350) -7.09694643E-03                    1_GWF-(1,26625)
         89          2         39      0.59260960                    1_GWF-(1,26422) -1.18331391E-02                    1_GWF-(1,15940)
         90          2         40     -0.54704162                    1_GWF-(1,26422)  1.96615437E-02                    1_GWF-(1,15940)
         91          2         41      0.41210756                    1_GWF-(1,20977) -2.14862048E-02                    1_GWF-(1,15940)
         92          2         42      0.30251723                    1_GWF-(1,21288)  2.44597687E-02                    1_GWF-(1,15940)
         93          2         43      0.32256081                    1_GWF-(1,21283) -2.30236924E-02                    1_GWF-(1,15940)
         94          2         44      0.33993294                    1_GWF-(1,21271)  2.44497666E-02                    1_GWF-(1,15940)
         95          2         45      0.34254931                    1_GWF-(1,20578) -2.48216140E-02                    1_GWF-(1,15940)
         96          2         46      0.38282691                    1_GWF-(1,20582) -2.23408321E-02                    1_GWF-(1,15941)
         97          2         47      0.39763399                    1_GWF-(1,20570) -1.90479553E-02                    1_GWF-(1,15940)
         98          2         48     -0.30066000                    1_GWF-(1,26422) -1.42456750E-02                    1_GWF-(1,15941)
         99          2         49     -0.30433439                    1_GWF-(1,20996)  1.16668261E-02                    1_GWF-(1,10652)
        100          2         50     -0.34845521                    1_GWF-(1,20983)  9.36568204E-03                    1_GWF-(1,10651)
        101          3          1      0.21795498                    1_GWF-(1,26673) -5.33692409E-02                    1_GWF-(1,11430)
        102          3          2      0.27069719                    1_GWF-(1,26672)  9.64510464E-03                    1_GWF-(1,10651)
        103          3          3     -0.24588389                    1_GWF-(1,26672)  5.15669119E-02                    1_GWF-(1,11430)
        104          3          4      0.25177185                    1_GWF-(1,26350) -4.09529670E-02                    1_GWF-(1,11430)
        105          3          5     -0.31583209                    1_GWF-(1,20616)  1.24802345E-02                    1_GWF-(1,11430)
        106          3          6     -0.23707505                    1_GWF-(1,20609)  1.80552542E-02                    1_GWF-(1,11430)
        107          3          7     -0.19264447                    1_GWF-(1,26674) -2.82756546E-02                    1_GWF-(1,11430)
        108          3          8     -0.23908471                    1_GWF-(1,26663)  1.80082272E-02                    1_GWF-(1,11430)
        109          3          9      0.18200413                    1_GWF-(1,20700)  6.85268996E-03                    1_GWF-(1,10652)
        110          3         10      0.21297304                    1_GWF-(1,20699) -1.97386046E-02                    1_GWF-(1,11430)
        111          3         11      0.23710872                    1_GWF-(1,20596)  1.76038986E-02                    1_GWF-(1,11430)
        112          3         12     -0.25550861                    1_GWF-(1,26422)  5.41436899E-03                    1_GWF-(1,14801)
        113          3         13      0.21206664                    1_GWF-(1,26422) -8.28447824E-03                    1_GWF-(1,11430)
        114          3         14      0.23519650                    1_GWF-(1,26350)  1.33677633E-02                    1_GWF-(1,11430)
        115          3         15     -0.28906029                    1_GWF-(1,26350) -7.48930018E-03                    1_GWF-(1,11430)
        116          3         16     -0.27283722                    1_GWF-(1,26422) -5.15581119E-03                    1_GWF-(1,11430)
        117          3         17      0.23593379                    1_GWF-(1,20913)  1.22076863E-02                    1_GWF-(1,11430)
        118          3         18     -0.19679014                    1_GWF-(1,26672) -7.91000468E-03                    1_GWF-(1,11430)
        119          3         19      0.18327653                    1_GWF-(1,26672)  6.00244937E-03                    1_GWF-(1,14801)
        120          3         20     -0.19984483                    1_GWF-(1,20911)  6.85315757E-03                    1_GWF-(1,11430)
        121          3         21     -0.19207793                    1_GWF-(1,20919) -7.61131361E-03                    1_GWF-(1,11430)
        122          3         22     -0.19786669                    1_GWF-(1,20229)  5.51531347E-03                    1_GWF-(1,14800)
        123          3         23     -0.14113628                    1_GWF-(1,20571)  5.29517275E-03                    1_GWF-(1,14801)
        124          3         24      0.22668131                    1_GWF-(1,26486) -5.77406532E-03                    1_GWF-(1,11430)
        125          3         25      0.26279860                    1_GWF-(1,26487)  2.79411077E-03                    1_GWF-(1,10650)
        126          3         26      0.19562936                    1_GWF-(1,26486)  4.51915389E-03                    1_GWF-(1,11430)
        127          3         27      0.12013639                    1_GWF-(1,26422) -4.90315244E-03                    1_GWF-(1,11430)
        128          3         28     -0.18902844                    1_GWF-(1,26588)  5.98457211E-03                    1_GWF-(1,14801)
        129          3         29     -0.28191779                    1_GWF-(1,26543)  4.65375777E-03                    1_GWF-(1,14800)
        130          3         30     -0.23350440                    1_GWF-(1,26588) -3.18160648E-03                    1_GWF-(1,11430)
        131          3         31      0.17922950                    1_GWF-(1,26588)  4.61944717E-03                    1_GWF-(1,14801)
        132          3         32     -0.10356485                    1_GWF-(1,26588)  5.95948173E-03                    1_GWF-(1,14800)
        133          3         33     -0.11905204                    1_GWF-(1,26422)  5.73107983E-03                    1_GWF-(1,14801)
        134          3         34      0.14032880                    1_GWF-(1,26622) -4.87609775E-03                    1_GWF-(1,14801)
        135          3         35     -0.12805280                    1_GWF-(1,26622)  2.99565113E-03                    1_GWF-(1,11430)
        136          3         36      0.12661758                    1_GWF-(1,26622) -3.01601526E-03                    1_GWF-(1,14800)
        137          3         37      0.12311490                    1_GWF-(1,26649) -4.67715518E-03                    1_GWF-(1,14801)
        138          3         38      0.10089928                    1_GWF-(1,26622) -4.34553581E-03                    1_GWF-(1,14800)
        139          3         39 -8.88690666E-02                    1_GWF-(1,26666)  2.90107309E-03                    1_GWF-(1,14800)
        140          3         40     -0.14888926                    1_GWF-(1,26665)  1.63183822E-03                     1_GWF-(1,9290)
        141          3         41     -0.11231097                    1_GWF-(1,26666)  2.31108349E-03                    1_GWF-(1,14801)
        142          3         42     -0.10775842                    1_GWF-(1,26665) -4.75264791E-03                    1_GWF-(1,14801)
        143          3         43 -8.10928776E-02                    1_GWF-(1,26217) -5.78305806E-03                    1_GWF-(1,14800)
        144          3         44  8.93786179E-02                    1_GWF-(1,26588) -6.83072951E-03                    1_GWF-(1,14801)
        145          3         45  9.17876346E-02                    1_GWF-(1,26649) -7.82762912E-03                    1_GWF-(1,14800)
        146          3         46      0.11251996                    1_GWF-(1,26648) -1.01867758E-02                    1_GWF-(1,14801)
        147          3         47  8.30441848E-02                    1_GWF-(1,26443) -9.77377647E-03                    1_GWF-(1,14800)
        148          3         48  9.30029383E-02                    1_GWF-(1,26453) -9.90545452E-03                    1_GWF-(1,14801)
        149          3         49     -0.11523754                    1_GWF-(1,26648)  9.79977529E-03                    1_GWF-(1,14801)
        150          3         50     -0.12673620                    1_GWF-(1,26463) -1.11509464E-02                    1_GWF-(1,14801)
        151          4          1 -6.48340114E-02                    1_GWF-(1,26217) -1.21895261E-02                    1_GWF-(1,15226)
        152          4          2 -5.43873215E-02                    1_GWF-(1,26218) -8.78426009E-03                    1_GWF-(1,14801)
        153          4          3 -6.47345660E-02                    1_GWF-(1,26217) -1.00885929E-02                    1_GWF-(1,14800)
        154          4          4 -6.89222550E-02                    1_GWF-(1,26218) -1.11149974E-02                    1_GWF-(1,14801)
        155          4          5 -6.75814826E-02                    1_GWF-(1,26217) -1.09025963E-02                    1_GWF-(1,14800)
        156          4          6 -7.82408748E-02                    1_GWF-(1,26218) -1.05494296E-02                    1_GWF-(1,14801)
        157          4          7 -6.28914015E-02                    1_GWF-(1,26217) -8.89632758E-03                    1_GWF-(1,14800)
        158          4          8  4.42388147E-02                    1_GWF-(1,26217) -8.12541473E-03                    1_GWF-(1,14801)
        159          4          9 -4.56576482E-02                    1_GWF-(1,26666) -6.14363756E-03                    1_GWF-(1,14800)
        160          4         10 -5.28336599E-02                    1_GWF-(1,26665) -4.67111512E-03                    1_GWF-(1,14801)
        161          4         11  7.44695036E-02                    1_GWF-(1,26665)  1.74434673E-03                    1_GWF-(1,15940)
        162          4         12  6.24677179E-02                    1_GWF-(1,26666) -1.37654863E-03                    1_GWF-(1,14800)
        163          4         13  6.23835758E-02                    1_GWF-(1,26665) -3.75795463E-03                    1_GWF-(1,14801)
        164          4         14  4.47640662E-02                    1_GWF-(1,26622) -4.58629502E-03                    1_GWF-(1,14800)
        165          4         15  5.59659774E-02                    1_GWF-(1,26649) -3.92931945E-03                    1_GWF-(1,14801)
        166          4         16  6.59827560E-02                    1_GWF-(1,26622) -2.22185958E-03                    1_GWF-(1,15896)
        167          4         17 -8.24688855E-02                    1_GWF-(1,26622) -2.05942994E-03                    1_GWF-(1,14800)
        168          4         18 -6.92153724E-02                    1_GWF-(1,26623) -3.90149415E-03                    1_GWF-(1,14801)
        169          4         19  6.97040681E-02                    1_GWF-(1,20135)  4.84516234E-03                    1_GWF-(1,14801)
        170          4         20  7.16709313E-02                    1_GWF-(1,20156)  4.07474842E-03                    1_GWF-(1,14800)
        171          4         21 -6.60191990E-02                    1_GWF-(1,26543)  2.63571948E-03                    1_GWF-(1,14801)
        172          4         22 -8.74535060E-02                    1_GWF-(1,26588)  1.81504000E-03                    1_GWF-(1,15810)
        173          4         23 -8.22912493E-02                    1_GWF-(1,20155)  2.97758119E-03                    1_GWF-(1,14800)
        174          4         24 -8.57025026E-02                    1_GWF-(1,20163) -4.26698265E-03                    1_GWF-(1,14800)
        175          4         25 -7.13663681E-02                    1_GWF-(1,20496) -4.00322070E-03                    1_GWF-(1,14801)
        176          4         26  5.87689632E-02                    1_GWF-(1,26486)  2.09666388E-03                    1_GWF-(1,14801)
        177          4         27  7.04826843E-02                    1_GWF-(1,26487)  1.13751907E-03                    1_GWF-(1,15853)
        178          4         28 -6.55098201E-02                    1_GWF-(1,26487)  3.10379635E-03                    1_GWF-(1,14800)
        179          4         29  5.42570738E-02                    1_GWF-(1,26487)  4.68719144E-03                    1_GWF-(1,14801)
        180          4         30  5.42887679E-02                    1_GWF-(1,20228)  5.29552781E-03                    1_GWF-(1,14800)
        181          4         31  5.35259594E-02                    1_GWF-(1,20917)  5.61464868E-03                    1_GWF-(1,14801)
        182          4         32  4.24773040E-02                    1_GWF-(1,20196)  5.61135827E-03                    1_GWF-(1,14800)
        183          4         33  4.97240534E-02                    1_GWF-(1,20208)  6.11166502E-03                    1_GWF-(1,14801)
        184          4         34  5.01713061E-02                    1_GWF-(1,20212)  6.38178966E-03                    1_GWF-(1,14800)
        185          4         35 -4.11793060E-02                    1_GWF-(1,26350)  6.76051999E-03                    1_GWF-(1,14801)
        186          4         36 -6.07349524E-02                    1_GWF-(1,26422)  5.87965623E-03                    1_GWF-(1,14800)
        187          4         37 -6.74682034E-02                    1_GWF-(1,26350)  4.60882908E-03                    1_GWF-(1,14801)
        188          4         38 -6.92234631E-02                    1_GWF-(1,26422)  2.50375340E-03                    1_GWF-(1,14800)
        189          4         39 -6.16318786E-02                    1_GWF-(1,20205)  1.52762155E-03                    1_GWF-(1,10650)
        190          4         40 -5.31477636E-02                    1_GWF-(1,20213)  2.57029885E-03                    1_GWF-(1,14801)
        191          4         41 -5.09339422E-02                    1_GWF-(1,20571)  4.20591767E-03                    1_GWF-(1,14800)
        192          4         42 -4.43455287E-02                    1_GWF-(1,20580)  5.17276655E-03                    1_GWF-(1,14801)
        193          4         43  3.28972503E-02                    1_GWF-(1,26486)  5.23774965E-03                    1_GWF-(1,14800)
        194          4         44  3.15196275E-02                    1_GWF-(1,26420)  6.04497998E-03                    1_GWF-(1,14801)
        195          4         45  3.67492137E-02                    1_GWF-(1,26421)  5.79593119E-03                    1_GWF-(1,14800)
        196          4         46  3.17893954E-02                    1_GWF-(1,20230)  5.56236473E-03                    1_GWF-(1,14801)
        197          4         47  2.81098055E-02                    1_GWF-(1,20616)  4.88231834E-03                    1_GWF-(1,14800)
        198          4         48  2.64420387E-02                    1_GWF-(1,20704)  4.29733958E-03                    1_GWF-(1,14801)
        199          4         49  2.87566964E-02                    1_GWF-(1,20697)  3.73914648E-03                    1_GWF-(1,14800)
        200          4         50  2.59544584E-02                    1_GWF-(1,20720)  3.52783265E-03                    1_GWF-(1,14801)
        201          5          1 -1.59362422E-02                    1_GWF-(1,26217)  3.33195822E-03                    1_GWF-(1,14800)
        202          5          2 -2.43340728E-02                    1_GWF-(1,26218)  3.67808071E-03                    1_GWF-(1,14801)
        203          5          3 -2.22618047E-02                    1_GWF-(1,26217)  4.02045678E-03                    1_GWF-(1,14800)
        204          5          4 -1.99393004E-02                    1_GWF-(1,26486)  4.51940677E-03                    1_GWF-(1,14801)
        205          5          5 -2.41191683E-02                    1_GWF-(1,20230)  4.67213128E-03                    1_GWF-(1,14800)
        206          5          6 -2.37273809E-02                    1_GWF-(1,26486)  5.10139305E-03                    1_GWF-(1,14801)
        207          5          7 -1.97171636E-02                    1_GWF-(1,26544)  4.49387961E-03                    1_GWF-(1,14800)
        208          5          8 -1.71160771E-02                    1_GWF-(1,26486)  4.14205437E-03                    1_GWF-(1,14801)
        209          5          9  1.97646276E-02                    1_GWF-(1,20580)  3.26708811E-03                    1_GWF-(1,14800)
        210          5         10  2.46667558E-02                    1_GWF-(1,20560)  2.40051719E-03                    1_GWF-(1,14801)
        211          5         11  2.31911127E-02                    1_GWF-(1,26486)  1.32813192E-03                    1_GWF-(1,10650)
        212          5         12  2.90607419E-02                    1_GWF-(1,26350)  1.02758935E-03                    1_GWF-(1,10481)
        213          5         13  3.92661210E-02                    1_GWF-(1,26422)  1.90302990E-03                    1_GWF-(1,14801)
        214          5         14  3.92757308E-02                    1_GWF-(1,26350)  2.61699809E-03                    1_GWF-(1,14800)
        215          5         15  3.47586841E-02                    1_GWF-(1,26422)  3.05739545E-03                    1_GWF-(1,14801)
        216          5         16  2.46627113E-02                    1_GWF-(1,26350)  2.85581512E-03                    1_GWF-(1,14800)
        217          5         17 -1.71211828E-02                    1_GWF-(1,20111)  2.71457158E-03                    1_GWF-(1,14801)
        218          5         18 -1.34237792E-02                    1_GWF-(1,20186)  2.29562452E-03                    1_GWF-(1,14800)
        219          5         19 -1.49345837E-02                    1_GWF-(1,20196)  2.03235910E-03                    1_GWF-(1,14801)
        220          5         20 -1.66492565E-02                    1_GWF-(1,20916)  1.80952900E-03                    1_GWF-(1,14800)
        221          5         21 -2.06224228E-02                    1_GWF-(1,20226)  1.51164549E-03                    1_GWF-(1,14801)
        222          5         22 -1.55403071E-02                    1_GWF-(1,26487)  1.35737985E-03                    1_GWF-(1,10650)
        223          5         23 -1.83306210E-02                    1_GWF-(1,26420)  6.37919230E-04                    1_GWF-(1,10629)
        224          5         24 -2.27462875E-02                    1_GWF-(1,26487) -2.78310010E-04                    1_GWF-(1,15853)
        225          5         25 -2.07442755E-02                    1_GWF-(1,26486)  8.36152699E-04                    1_GWF-(1,10650)
        226          5         26 -2.01507189E-02                    1_GWF-(1,26487) -1.10486039E-03                    1_GWF-(1,14800)
        227          5         27  1.86390322E-02                    1_GWF-(1,20163)  1.18370644E-03                    1_GWF-(1,10650)
        228          5         28  1.50077429E-02                    1_GWF-(1,20122)  7.48204466E-04                    1_GWF-(1,14801)
        229          5         29 -1.60407362E-02                    1_GWF-(1,26543) -2.88567927E-04                    1_GWF-(1,15570)
        230          5         30  1.78874020E-02                    1_GWF-(1,26543)  6.87788757E-04                    1_GWF-(1,14800)
        231          5         31  1.67863498E-02                    1_GWF-(1,26588) -1.05445753E-03                    1_GWF-(1,10650)
        232          5         32  1.15332456E-02                    1_GWF-(1,26543)  9.07651612E-04                    1_GWF-(1,14800)
        233          5         33  1.06051506E-02                    1_GWF-(1,26666) -7.09541339E-04                    1_GWF-(1,14800)
        234          5         34  1.25248934E-02                    1_GWF-(1,26665) -4.19762638E-04                    1_GWF-(1,14801)
        235          5         35 -1.42563002E-02                    1_GWF-(1,26665)  3.48916328E-04                    1_GWF-(1,10650)
        236          5         36 -1.03540116E-02                    1_GWF-(1,26623) -7.23869488E-04                    1_GWF-(1,10650)
        237          5         37 -9.31904063E-03                    1_GWF-(1,26622) -8.16612737E-04                    1_GWF-(1,14801)
        238          5         38  8.48693663E-03                    1_GWF-(1,26622) -6.87980255E-04                    1_GWF-(1,14800)
        239          5         39  8.72357455E-03                    1_GWF-(1,26649) -3.31641956E-04                    1_GWF-(1,14801)
        240          5         40 -1.16750659E-02                    1_GWF-(1,26665) -3.88965839E-04                    1_GWF-(1,10629)
        241          5         41  1.14675759E-02                    1_GWF-(1,26665) -7.75047719E-04                    1_GWF-(1,14800)
        242          5         42  7.93243225E-03                    1_GWF-(1,26666) -1.05000050E-03                    1_GWF-(1,14801)
        243          5         43 -7.76409290E-03                    1_GWF-(1,26217) -1.18059680E-03                    1_GWF-(1,14800)
        244          5         44 -8.32653618E-03                    1_GWF-(1,26218) -1.39636242E-03                    1_GWF-(1,14801)
        245          5         45  1.04378034E-02                    1_GWF-(1,20604) -1.45713066E-03                    1_GWF-(1,14800)
        246          5         46  1.33557336E-02                    1_GWF-(1,20917) -1.54203666E-03                    1_GWF-(1,14801)
        247          5         47  1.05793328E-02                    1_GWF-(1,20225) -1.46911775E-03                    1_GWF-(1,14800)
        248          5         48  1.09935787E-02                    1_GWF-(1,26217) -1.41169058E-03                    1_GWF-(1,14801)
        249          5         49  1.19187644E-02                    1_GWF-(1,26218) -1.09592919E-03                    1_GWF-(1,14800)
        250          5         50 -2.05878683E-02                    1_GWF-(1,20233)  2.33991569E-03                    1_GWF-(1,15910)
        251          6          1 -9.81604206E-03                    1_GWF-(1,26217) -9.91997861E-04                    1_GWF-(1,14800)
        252          6          2 -1.04792998E-02                    1_GWF-(1,26218) -1.22173933E-03                    1_GWF-(1,14801)
        253          6          3 -1.04414297E-02                    1_GWF-(1,26217)  1.13463482E-03                    1_GWF-(1,14801)
        254          6          4 -9.15561771E-03                    1_GWF-(1,26218) -1.19247507E-03                    1_GWF-(1,14801)
        255          6          5 -8.20204246E-03                    1_GWF-(1,20234) -1.10269158E-03                    1_GWF-(1,14800)
        256          6          6 -8.10152489E-03                    1_GWF-(1,20909) -1.03650661E-03                    1_GWF-(1,14801)
        257          6          7  5.37862641E-03                    1_GWF-(1,26218) -8.41810573E-04                    1_GWF-(1,14800)
        258          6          8  5.21625131E-03                    1_GWF-(1,26217) -6.93891975E-04                    1_GWF-(1,14801)
        259          6          9  4.09976750E-03                    1_GWF-(1,26218) -5.10287387E-04                    1_GWF-(1,14800)
        260          6         10 -5.84522038E-03                    1_GWF-(1,26665) -2.99846410E-04                    1_GWF-(1,10629)
        261          6         11  6.57732070E-03                    1_GWF-(1,26665) -2.85879095E-04                    1_GWF-(1,10650)
        262          6         12 -6.42744677E-03                    1_GWF-(1,26649) -3.58523673E-04                    1_GWF-(1,14800)
        263          6         13 -5.09933972E-03                    1_GWF-(1,26622) -4.54803328E-04                    1_GWF-(1,14801)
        264          6         14  5.06941531E-03                    1_GWF-(1,26622) -4.46954658E-04                    1_GWF-(1,10650)
        265          6         15  5.76341358E-03                    1_GWF-(1,26623)  3.74782686E-04                    1_GWF-(1,10650)
        266          6         16  8.20724539E-03                    1_GWF-(1,26665) -2.15988170E-04                    1_GWF-(1,10650)
        267          6         17  6.64851720E-03                    1_GWF-(1,26666) -3.06954299E-04                    1_GWF-(1,14800)
        268          6         18 -5.42216852E-03                    1_GWF-(1,26666)  4.32419895E-04                    1_GWF-(1,14800)
        269          6         19  6.44984712E-03                    1_GWF-(1,20131) -6.27742082E-04                    1_GWF-(1,10650)
        270          6         20 -7.04572910E-03                    1_GWF-(1,26588)  5.57672228E-04                    1_GWF-(1,10650)
        271          6         21 -7.34073697E-03                    1_GWF-(1,26543) -2.93087155E-04                    1_GWF-(1,10650)
        272          6         22  7.75172762E-03                    1_GWF-(1,26543)  2.06260323E-04                    1_GWF-(1,14801)
        273          6         23 -5.90940695E-03                    1_GWF-(1,20155)  5.44902006E-04                    1_GWF-(1,10650)
        274          6         24 -7.21846420E-03                    1_GWF-(1,20163) -6.78725208E-04                    1_GWF-(1,10650)
        275          6         25  7.19273857E-03                    1_GWF-(1,26487)  6.24649814E-04                    1_GWF-(1,10650)
        276          6         26  7.51570664E-03                    1_GWF-(1,26486) -2.16173591E-04                    1_GWF-(1,10650)
        277          6         27  8.54008454E-03                    1_GWF-(1,26487) -1.95686779E-04                    1_GWF-(1,10650)
        278          6         28  7.19078431E-03                    1_GWF-(1,26588)  6.37494333E-04                    1_GWF-(1,10650)
        279          6         29  5.26646207E-03                    1_GWF-(1,26487) -6.05341461E-04                    1_GWF-(1,10650)
        280          6         30  6.82319265E-03                    1_GWF-(1,20216)  8.15035062E-04                    1_GWF-(1,10650)
        281          6         31  6.71844165E-03                    1_GWF-(1,20918) -5.26444408E-04                    1_GWF-(1,10650)
        282          6         32  6.03479587E-03                    1_GWF-(1,21261)  6.67643506E-04                    1_GWF-(1,10650)
        283          6         33  5.28538161E-03                    1_GWF-(1,20223)  5.62895455E-04                    1_GWF-(1,14801)
        284          6         34  5.63167855E-03                    1_GWF-(1,20216)  5.83090123E-04                    1_GWF-(1,14800)
        285          6         35 -4.78820123E-03                    1_GWF-(1,26350)  6.19081349E-04                    1_GWF-(1,14801)
        286          6         36 -7.30889278E-03                    1_GWF-(1,26422)  5.81233157E-04                    1_GWF-(1,14800)
        287          6         37 -8.25875461E-03                    1_GWF-(1,26350)  5.16141794E-04                    1_GWF-(1,14801)
        288          6         38 -8.41358770E-03                    1_GWF-(1,26422)  3.14193605E-04                    1_GWF-(1,14800)
        289          6         39 -6.60665916E-03                    1_GWF-(1,26350)  4.32107428E-04                    1_GWF-(1,10650)
        290          6         40 -5.63045385E-03                    1_GWF-(1,20606)  2.67318859E-04                    1_GWF-(1,10629)
        291          6         41 -5.06434528E-03                    1_GWF-(1,20571)  3.67564080E-04                    1_GWF-(1,14800)
        292          6         42 -3.44612932E-03                    1_GWF-(1,20703)  4.75374674E-04                    1_GWF-(1,14801)
        293          6         43  3.93034069E-03                    1_GWF-(1,26421)  5.59838578E-04                    1_GWF-(1,14800)
        294          6         44  3.58390076E-03                    1_GWF-(1,26420)  6.65200343E-04                    1_GWF-(1,14801)
        295          6         45  4.31999720E-03                    1_GWF-(1,26218)  6.41147991E-04                    1_GWF-(1,14800)
        296          6         46  3.98454854E-03                    1_GWF-(1,20571)  6.55754549E-04                    1_GWF-(1,14801)
        297          6         47  3.03820299E-03                    1_GWF-(1,26486)  6.10770781E-04                    1_GWF-(1,14800)
        298          6         48  2.78951835E-03                    1_GWF-(1,20209)  5.90315809E-04                    1_GWF-(1,14801)
        299          6         49  2.22103854E-03                    1_GWF-(1,26218)  4.81266531E-04                    1_GWF-(1,14800)
        300          6         50 -1.57720374E-03                    1_GWF-(1,26218)  4.19331856E-04                    1_GWF-(1,14801)
        301          7          1 -2.35751493E-03                    1_GWF-(1,11428)  4.49821529E-04                    1_GWF-(1,14800)
        302          7          2 -2.67229305E-03                    1_GWF-(1,26218)  5.35151313E-04                    1_GWF-(1,14801)
        303          7          3 -2.47148287E-03                    1_GWF-(1,26217)  5.43673541E-04                    1_GWF-(1,14800)
        304          7          4 -2.83335659E-03                    1_GWF-(1,26486)  5.61196534E-04                    1_GWF-(1,14801)
        305          7          5 -3.06642355E-03                    1_GWF-(1,26544)  5.23204382E-04                    1_GWF-(1,14800)
        306          7          6 -3.08350503E-03                    1_GWF-(1,26218)  5.20041140E-04                    1_GWF-(1,14801)
        307          7          7 -2.25793661E-03                    1_GWF-(1,26544)  4.20631614E-04                    1_GWF-(1,14800)
        308          7          8 -2.11485576E-03                    1_GWF-(1,26486)  3.45665513E-04                    1_GWF-(1,14801)
        309          7          9  2.28688389E-03                    1_GWF-(1,20580)  2.63122808E-04                    1_GWF-(1,14800)
        310          7         10  3.01674916E-03                    1_GWF-(1,20571)  1.73918069E-04                    1_GWF-(1,10629)
        311          7         11  3.94277166E-03                    1_GWF-(1,26486)  2.45075435E-04                    1_GWF-(1,10650)
        312          7         12  3.95008073E-03                    1_GWF-(1,26544)  1.86417387E-04                    1_GWF-(1,14800)
        313          7         13  3.74694572E-03                    1_GWF-(1,26486)  2.02422507E-04                    1_GWF-(1,14801)
        314          7         14  3.40239430E-03                    1_GWF-(1,26588)  2.23201403E-04                    1_GWF-(1,10650)
        315          7         15  3.36827660E-03                    1_GWF-(1,26420)  1.59214608E-04                    1_GWF-(1,10481)
        316          7         16  3.66064709E-03                    1_GWF-(1,26422)  1.64128715E-04                    1_GWF-(1,14801)
        317          7         17  2.92707170E-03                    1_GWF-(1,26350)  2.00636230E-04                    1_GWF-(1,14800)
        318          7         18  2.11360976E-03                    1_GWF-(1,26422)  2.24463985E-04                    1_GWF-(1,14801)
        319          7         19 -2.03062302E-03                    1_GWF-(1,21267)  2.19397447E-04                    1_GWF-(1,14800)
        320          7         20 -2.28324551E-03                    1_GWF-(1,21259)  2.21869887E-04                    1_GWF-(1,14801)
        321          7         21 -2.22861358E-03                    1_GWF-(1,20230)  2.68042910E-04                    1_GWF-(1,10650)
        322          7         22 -1.96878512E-03                    1_GWF-(1,20221) -2.22873698E-04                    1_GWF-(1,10650)
        323          7         23 -1.61902948E-03                    1_GWF-(1,26486)  2.28206182E-04                    1_GWF-(1,10650)
        324          7         24  1.92932749E-03                    1_GWF-(1,20222) -1.54176031E-04                    1_GWF-(1,10650)
        325          7         25 -2.31284508E-03                    1_GWF-(1,26649)  3.32524887E-05                     1_GWF-(1,9290)
        326          7         26 -2.05620120E-03                    1_GWF-(1,26487)  1.57121846E-04                    1_GWF-(1,10650)
        327          7         27  2.05020181E-03                    1_GWF-(1,20152) -2.23667576E-04                    1_GWF-(1,10650)
        328          7         28  1.99444024E-03                    1_GWF-(1,20164)  2.22538805E-04                    1_GWF-(1,10650)
        329          7         29  1.58859879E-03                    1_GWF-(1,20110) -1.95454952E-04                    1_GWF-(1,10650)
        330          7         30 -1.48657595E-03                    1_GWF-(1,20166)  1.47509259E-04                    1_GWF-(1,10650)
        331          7         31 -1.57684714E-03                    1_GWF-(1,20211) -8.10496814E-05                    1_GWF-(1,10650)
        332          7         32  1.75919786E-03                    1_GWF-(1,26588) -3.58462111E-05                    1_GWF-(1,10650)
        333          7         33  1.45499522E-03                    1_GWF-(1,26543)  7.91911407E-05                    1_GWF-(1,10650)
        334          7         34  1.54138585E-03                    1_GWF-(1,26588) -1.13387053E-04                    1_GWF-(1,10650)
        335          7         35  1.32880867E-03                    1_GWF-(1,26543) -9.74154574E-05                    1_GWF-(1,14801)
        336          7         36  1.06200212E-03                    1_GWF-(1,26588) -9.38601970E-05                    1_GWF-(1,14800)
        337          7         37  1.10631332E-03                    1_GWF-(1,26665) -7.52058610E-05                    1_GWF-(1,14801)
        338          7         38  1.33235779E-03                    1_GWF-(1,26666) -3.95538818E-05                    1_GWF-(1,10481)
        339          7         39  1.43885379E-03                    1_GWF-(1,26665) -8.08740265E-05                    1_GWF-(1,10650)
        340          7         40 -1.31668090E-03                    1_GWF-(1,26665) -7.81212299E-05                    1_GWF-(1,14801)
        341          7         41  8.63733883E-04                    1_GWF-(1,26665) -9.45232430E-05                    1_GWF-(1,14800)
        342          7         42 -6.98037085E-04                    1_GWF-(1,26218) -1.13296490E-04                    1_GWF-(1,14801)
        343          7         43  8.99049437E-04                    1_GWF-(1,21270) -1.26400111E-04                    1_GWF-(1,14800)
        344          7         44  1.18278372E-03                    1_GWF-(1,20584) -1.51422189E-04                    1_GWF-(1,14801)
        345          7         45  1.36752554E-03                    1_GWF-(1,20915) -1.55925534E-04                    1_GWF-(1,14800)
        346          7         46  1.28656075E-03                    1_GWF-(1,20234) -1.66163168E-04                    1_GWF-(1,14801)
        347          7         47  1.26221652E-03                    1_GWF-(1,26218) -1.53604646E-04                    1_GWF-(1,14800)
        348          7         48  1.40652455E-03                    1_GWF-(1,26217) -1.66501172E-04                    1_GWF-(1,14801)
        349          7         49 -1.52909839E-03                    1_GWF-(1,20231) -1.34903799E-04                    1_GWF-(1,14800)
        350          7         50 -1.61692614E-03                    1_GWF-(1,20230)  2.11435420E-04                    1_GWF-(1,15910)
        351          8          1 -1.15632297E-03                    1_GWF-(1,26217) -1.18760248E-04                    1_GWF-(1,14800)
        352          8          2 -1.22846149E-03                    1_GWF-(1,26218) -1.39959991E-04                    1_GWF-(1,14801)
        353          8          3 -1.19986047E-03                    1_GWF-(1,26217) -1.27435761E-04                    1_GWF-(1,14800)
        354          8          4 -1.04355959E-03                    1_GWF-(1,26218) -1.33014564E-04                    1_GWF-(1,14801)
        355          8          5 -8.11835975E-04                    1_GWF-(1,26217) -1.19654122E-04                    1_GWF-(1,14800)
        356          8          6 -8.41222457E-04                    1_GWF-(1,20909) -1.10930904E-04                    1_GWF-(1,14801)
        357          8          7  5.58332566E-04                    1_GWF-(1,26218) -8.98057051E-05                    1_GWF-(1,14800)
        358          8          8  5.67455914E-04                    1_GWF-(1,26217) -7.31000024E-05                    1_GWF-(1,14801)
        359          8          9  4.80246284E-04                    1_GWF-(1,26487)  5.42373556E-05                    1_GWF-(1,14801)
        360          8         10  7.39729852E-04                    1_GWF-(1,26486) -3.56686207E-05                    1_GWF-(1,10629)
        361          8         11  8.50873664E-04                    1_GWF-(1,26487) -3.02845032E-05                    1_GWF-(1,10650)
        362          8         12  6.28293155E-04                    1_GWF-(1,26486) -4.32589411E-05                    1_GWF-(1,14800)
        363          8         13 -5.29726865E-04                    1_GWF-(1,26486) -5.33590209E-05                    1_GWF-(1,14801)
        364          8         14  5.51493799E-04                    1_GWF-(1,26622) -4.96997439E-05                    1_GWF-(1,10650)
        365          8         15  6.50668890E-04                    1_GWF-(1,26623)  3.91798043E-05                    1_GWF-(1,10650)
        366          8         16  9.00789929E-04                    1_GWF-(1,26665) -2.14308656E-05                    1_GWF-(1,10650)
        367          8         17  7.23456581E-04                    1_GWF-(1,26666) -3.29026571E-05                    1_GWF-(1,14800)
        368          8         18 -6.51311765E-04                    1_GWF-(1,26623)  5.07787683E-05                    1_GWF-(1,14800)
        369          8         19  7.58587396E-04                    1_GWF-(1,20120) -7.69122804E-05                    1_GWF-(1,10650)
        370          8         20 -8.74046982E-04                    1_GWF-(1,26588)  7.04640286E-05                    1_GWF-(1,10650)
        371          8         21  8.61890564E-04                    1_GWF-(1,20166) -4.37793040E-05                    1_GWF-(1,10650)
        372          8         22 -9.48286260E-04                    1_GWF-(1,26588)  1.54283814E-05                    1_GWF-(1,15810)
        373          8         23  9.24771444E-04                    1_GWF-(1,26588)  5.35703595E-05                    1_GWF-(1,10650)
        374          8         24 -8.86908302E-04                    1_GWF-(1,20152) -7.62417538E-05                    1_GWF-(1,10650)
        375          8         25 -6.96641059E-04                    1_GWF-(1,20510)  9.40942278E-05                    1_GWF-(1,10650)
        376          8         26 -9.42908171E-04                    1_GWF-(1,20219) -7.96833246E-05                    1_GWF-(1,10650)
        377          8         27 -7.84365561E-04                    1_GWF-(1,20221)  7.83944121E-05                    1_GWF-(1,10650)
        378          8         28 -4.45277591E-04                    1_GWF-(1,11428)  6.71941748E-05                    1_GWF-(1,14801)
        379          8         29  6.19304106E-04                    1_GWF-(1,20221)  6.61560150E-05                    1_GWF-(1,14800)
        380          8         30  5.85026766E-04                    1_GWF-(1,20218)  5.30466279E-05                    1_GWF-(1,14801)
        381          8         31  7.28024432E-04                    1_GWF-(1,21259)  1.95262771E-05                    1_GWF-(1,10481)
        382          8         32 -6.92502417E-04                    1_GWF-(1,26649)  5.18926774E-05                    1_GWF-(1,10650)
        383          8         33  5.94414829E-04                    1_GWF-(1,20222)  5.24597290E-05                    1_GWF-(1,14801)
        384          8         34  6.88252041E-04                    1_GWF-(1,20215)  6.01134623E-05                    1_GWF-(1,14800)
        385          8         35 -5.79625762E-04                    1_GWF-(1,26544)  6.29589242E-05                    1_GWF-(1,14801)
        386          8         36 -7.66736519E-04                    1_GWF-(1,26422)  5.81794496E-05                    1_GWF-(1,14800)
        387          8         37 -8.96528036E-04                    1_GWF-(1,26350)  5.31580828E-05                    1_GWF-(1,14801)
        388          8         38 -9.35943078E-04                    1_GWF-(1,26422)  3.45330430E-05                    1_GWF-(1,10481)
        389          8         39 -7.71119975E-04                    1_GWF-(1,20588)  4.87642175E-05                    1_GWF-(1,10650)
        390          8         40 -7.37238904E-04                    1_GWF-(1,20609)  2.75010541E-05                    1_GWF-(1,14801)
        391          8         41 -6.14862105E-04                    1_GWF-(1,20606)  4.15034789E-05                    1_GWF-(1,14800)
        392          8         42 -4.34757864E-04                    1_GWF-(1,20703)  5.26763041E-05                    1_GWF-(1,14801)
        393          8         43  4.56914854E-04                    1_GWF-(1,26421)  6.09348252E-05                    1_GWF-(1,14800)
        394          8         44  4.15204022E-04                    1_GWF-(1,26350)  7.22102193E-05                    1_GWF-(1,14801)
        395          8         45  4.75901009E-04                    1_GWF-(1,26218)  6.74930709E-05                    1_GWF-(1,14800)
        396          8         46  4.11892930E-04                    1_GWF-(1,20571)  7.01284987E-05                    1_GWF-(1,14801)
        397          8         47  3.62370670E-04                    1_GWF-(1,26486)  6.63966599E-05                    1_GWF-(1,14800)
        398          8         48  2.92843114E-04                    1_GWF-(1,20209)  6.43872599E-05                    1_GWF-(1,14801)
        399          8         49  2.54222880E-04                    1_GWF-(1,26218)  5.36578445E-05                    1_GWF-(1,14800)
        400          8         50  2.05063558E-04                    1_GWF-(1,11428)  4.70200128E-05                    1_GWF-(1,14801)
        401          9          1 -2.31373929E-04                    1_GWF-(1,11428)  5.14506973E-05                    1_GWF-(1,14800)
        402          9          2 -2.93621138E-04                    1_GWF-(1,26218)  5.88766483E-05                    1_GWF-(1,14801)
        403          9          3 -2.55544826E-04                    1_GWF-(1,26217)  5.76788780E-05                    1_GWF-(1,14800)
        404          9          4 -4.49830662E-04                    1_GWF-(1,26486)  5.10388573E-05                    1_GWF-(1,14801)
        405          9          5 -4.71407373E-04                    1_GWF-(1,26544)  2.57629496E-05                    1_GWF-(1,14800)
        406          9          6 -5.09451572E-04                    1_GWF-(1,26486)  2.37324918E-05                    1_GWF-(1,14800)
        407          9          7 -4.30409620E-04                    1_GWF-(1,26588)  4.60969192E-05                    1_GWF-(1,14801)
        408          9          8 -3.08494274E-04                    1_GWF-(1,26420)  4.90523437E-05                    1_GWF-(1,14800)
        409          9          9  2.38249345E-04                    1_GWF-(1,20702)  5.19684948E-05                    1_GWF-(1,14801)
        410          9         10  3.12888210E-04                    1_GWF-(1,20583)  4.72675219E-05                    1_GWF-(1,14800)
        411          9         11  4.09538979E-04                    1_GWF-(1,20609)  4.16858195E-05                    1_GWF-(1,14801)
        412          9         12  3.60443929E-04                    1_GWF-(1,21273)  3.17189702E-05                    1_GWF-(1,14800)
        413          9         13  3.93005608E-04                    1_GWF-(1,26350)  2.06207569E-05                    1_GWF-(1,14801)
        414          9         14  4.73292876E-04                    1_GWF-(1,26422)  2.65566033E-05                    1_GWF-(1,10650)
        415          9         15  4.43846923E-04                    1_GWF-(1,26350)  1.62736206E-05                    1_GWF-(1,10481)
        416          9         16  4.36187702E-04                    1_GWF-(1,26422)  1.91301792E-05                    1_GWF-(1,14801)
        417          9         17  3.38138845E-04                    1_GWF-(1,26350)  2.31962995E-05                    1_GWF-(1,14800)
        418          9         18 -2.55119302E-04                    1_GWF-(1,20221)  2.58269713E-05                    1_GWF-(1,14801)
        419          9         19 -2.44509148E-04                    1_GWF-(1,20584)  2.40258996E-05                    1_GWF-(1,14800)
        420          9         20 -2.67228431E-04                    1_GWF-(1,21259)  2.02102083E-05                    1_GWF-(1,14801)
        421          9         21 -3.28164225E-04                    1_GWF-(1,26487)  1.64640747E-05                    1_GWF-(1,10650)
        422          9         22 -3.15832730E-04                    1_GWF-(1,26420)  8.64054308E-06                    1_GWF-(1,14800)
        423          9         23 -3.14395937E-04                    1_GWF-(1,26487)  1.79366252E-05                    1_GWF-(1,14801)
        424          9         24 -2.70817815E-04                    1_GWF-(1,26486)  1.91069501E-05                    1_GWF-(1,14800)
        425          9         25  3.02682698E-04                    1_GWF-(1,20219) -1.77883967E-05                    1_GWF-(1,10650)
        426          9         26 -2.15058560E-04                    1_GWF-(1,26649)  1.67936985E-05                    1_GWF-(1,10650)
        427          9         27  2.14184201E-04                    1_GWF-(1,26543) -3.87595849E-06                    1_GWF-(1,15810)
        428          9         28  2.19141534E-04                    1_GWF-(1,26588) -1.13086243E-05                    1_GWF-(1,10650)
        429          9         29 -1.98333465E-04                    1_GWF-(1,26588)  1.81643174E-05                    1_GWF-(1,10650)
        430          9         30 -1.58719280E-04                    1_GWF-(1,20166) -2.05225538E-05                    1_GWF-(1,10650)
        431          9         31 -2.10936833E-04                    1_GWF-(1,20168)  1.78229534E-05                    1_GWF-(1,10650)
        432          9         32 -1.67454873E-04                    1_GWF-(1,20119) -1.80049924E-05                    1_GWF-(1,10650)
        433          9         33 -1.29987174E-04                    1_GWF-(1,20108) -1.20737669E-05                    1_GWF-(1,14801)
        434          9         34  1.14625626E-04                    1_GWF-(1,20214) -1.17919622E-05                    1_GWF-(1,14800)
        435          9         35  1.37041359E-04                    1_GWF-(1,20207) -1.02636053E-05                    1_GWF-(1,14801)
        436          9         36 -1.48052173E-04                    1_GWF-(1,26665) -6.24920797E-06                    1_GWF-(1,14800)
        437          9         37  1.55822080E-04                    1_GWF-(1,26665) -6.93503409E-06                    1_GWF-(1,10650)
        438          9         38  1.45210198E-04                    1_GWF-(1,26666) -7.41762966E-06                    1_GWF-(1,14801)
        439          9         39  1.15908708E-04                    1_GWF-(1,26665) -9.78023386E-06                    1_GWF-(1,14800)
        440          9         40 -8.71423791E-05                    1_GWF-(1,20559) -1.15425196E-05                    1_GWF-(1,14801)
        441          9         41 -8.56428616E-05                    1_GWF-(1,26419) -1.16437118E-05                    1_GWF-(1,14800)
        442          9         42  8.29281668E-05                    1_GWF-(1,24351) -1.32538428E-05                    1_GWF-(1,14801)
        443          9         43  1.04026042E-04                    1_GWF-(1,24321) -1.43373452E-05                    1_GWF-(1,14800)
        444          9         44  1.25527441E-04                    1_GWF-(1,20584) -1.69389107E-05                    1_GWF-(1,14801)
        445          9         45  1.52402400E-04                    1_GWF-(1,20232) -1.71067179E-05                    1_GWF-(1,14800)
        446          9         46  1.31273372E-04                    1_GWF-(1,20234) -1.80178742E-05                    1_GWF-(1,14801)
        447          9         47  1.33858099E-04                    1_GWF-(1,26218) -1.62814071E-05                    1_GWF-(1,14800)
        448          9         48  1.50514158E-04                    1_GWF-(1,26217) -1.70682496E-05                    1_GWF-(1,14801)
        449          9         49 -1.54795019E-04                    1_GWF-(1,20231) -1.25117167E-05                    1_GWF-(1,14800)
        450          9         50 -1.35012015E-04                    1_GWF-(1,26623)  1.85918861E-05                    1_GWF-(1,15910)
        451         10          1  1.62681097E-04                    1_GWF-(1,26623) -5.47891210E-06                    1_GWF-(1,14800)
        452         10          2  1.47718175E-04                    1_GWF-(1,26622) -9.07236443E-06                    1_GWF-(1,15910)
        453         10          3  1.02114069E-04                    1_GWF-(1,20915)  7.88014127E-06                    1_GWF-(1,15910)
        454         10          4 -6.96656250E-05                    1_GWF-(1,25389) -6.66961580E-06                    1_GWF-(1,14800)
        455         10          5 -7.96623117E-05                    1_GWF-(1,26218) -1.00054416E-05                    1_GWF-(1,14801)
        456         10          6 -1.00385066E-04                    1_GWF-(1,20232) -1.10784094E-05                    1_GWF-(1,14800)
        457         10          7 -7.47468319E-05                    1_GWF-(1,26218) -1.18088622E-05                    1_GWF-(1,14801)
        458         10          8  9.86557736E-05                    1_GWF-(1,26218)  1.07872925E-05                    1_GWF-(1,14801)
        459         10          9  8.75397415E-05                    1_GWF-(1,26217) -1.05260864E-05                    1_GWF-(1,14801)
        460         10         10  7.19610185E-05                    1_GWF-(1,26218)  9.33338945E-06                    1_GWF-(1,14801)
        461         10         11  6.59337838E-05                    1_GWF-(1,26420) -8.63549812E-06                    1_GWF-(1,14801)
        462         10         12  6.14721944E-05                    1_GWF-(1,26218) -7.59785119E-06                    1_GWF-(1,14800)
        463         10         13 -6.36566080E-05                    1_GWF-(1,26487) -6.17001453E-06                    1_GWF-(1,14801)
        464         10         14  6.95207259E-05                    1_GWF-(1,26622) -2.50622058E-06                    1_GWF-(1,14800)
        465         10         15  9.32011337E-05                    1_GWF-(1,26649) -4.35686302E-06                    1_GWF-(1,14800)
        466         10         16 -7.67679359E-05                    1_GWF-(1,20208) -6.98945291E-06                    1_GWF-(1,14801)
        467         10         17 -6.55866940E-05                    1_GWF-(1,26487)  7.00114323E-06                    1_GWF-(1,14801)
        468         10         18 -5.75394183E-05                    1_GWF-(1,20169)  7.73432299E-06                    1_GWF-(1,14800)
        469         10         19  8.51644815E-05                    1_GWF-(1,20120)  7.81923601E-06                    1_GWF-(1,14801)
        470         10         20  1.02699037E-04                    1_GWF-(1,20168)  6.64692555E-06                    1_GWF-(1,14800)
        471         10         21 -1.05417873E-04                    1_GWF-(1,26665)  4.38299467E-06                    1_GWF-(1,14801)
        472         10         22 -1.05437699E-04                    1_GWF-(1,26666)  1.96704420E-06                    1_GWF-(1,15941)
        473         10         23  1.05740471E-04                    1_GWF-(1,26666)  3.65367384E-06                    1_GWF-(1,14800)
        474         10         24  1.02431831E-04                    1_GWF-(1,26665) -5.93129320E-06                    1_GWF-(1,14800)
        475         10         25 -7.66226093E-05                    1_GWF-(1,20509) -6.22970232E-06                    1_GWF-(1,14801)
        476         10         26 -1.09287164E-04                    1_GWF-(1,20219)  5.76209521E-06                    1_GWF-(1,14801)
        477         10         27  1.12683883E-04                    1_GWF-(1,26588)  4.16639259E-06                    1_GWF-(1,14800)
        478         10         28  1.06400989E-04                    1_GWF-(1,26543)  1.44166612E-06                    1_GWF-(1,14799)
        479         10         29  9.97010216E-05                    1_GWF-(1,26588)  3.95863010E-06                    1_GWF-(1,14801)
        480         10         30  6.47251451E-05                    1_GWF-(1,20217)  6.01551679E-06                    1_GWF-(1,14800)
        481         10         31  9.08748398E-05                    1_GWF-(1,20918)  6.57002933E-06                    1_GWF-(1,14801)
        482         10         32  8.16956901E-05                    1_GWF-(1,21261)  6.66472663E-06                    1_GWF-(1,14800)
        483         10         33  8.00706866E-05                    1_GWF-(1,20222)  7.14340458E-06                    1_GWF-(1,14801)
        484         10         34  8.11652053E-05                    1_GWF-(1,20212)  7.10721103E-06                    1_GWF-(1,14800)
        485         10         35 -5.98147213E-05                    1_GWF-(1,26544)  6.78291223E-06                    1_GWF-(1,14801)
        486         10         36 -8.36568680E-05                    1_GWF-(1,26486)  4.57154726E-06                    1_GWF-(1,14800)
        487         10         37 -8.59058417E-05                    1_GWF-(1,26487)  3.30752483E-06                    1_GWF-(1,10650)
        488         10         38 -8.34177104E-05                    1_GWF-(1,21264)  6.33786663E-06                    1_GWF-(1,14801)
        489         10         39 -8.85919334E-05                    1_GWF-(1,20588)  7.41515488E-06                    1_GWF-(1,14800)
        490         10         40 -8.63906842E-05                    1_GWF-(1,20608)  7.85207743E-06                    1_GWF-(1,14801)
        491         10         41 -7.47571386E-05                    1_GWF-(1,20606)  6.94869327E-06                    1_GWF-(1,14800)
        492         10         42  5.73298821E-05                    1_GWF-(1,26422)  6.17608590E-06                    1_GWF-(1,14801)
        493         10         43  6.97895057E-05                    1_GWF-(1,26350)  4.90460865E-06                    1_GWF-(1,14800)
        494         10         44  8.69491302E-05                    1_GWF-(1,26422)  3.63281639E-06                    1_GWF-(1,14801)
        495         10         45  8.90884433E-05                    1_GWF-(1,26350)  2.24015820E-06                    1_GWF-(1,15940)
        496         10         46  7.92094491E-05                    1_GWF-(1,26422)  2.80816859E-06                    1_GWF-(1,14800)
        497         10         47  5.34403076E-05                    1_GWF-(1,26544)  4.26555243E-06                    1_GWF-(1,14801)
        498         10         48  4.52559315E-05                    1_GWF-(1,26486)  4.86870317E-06                    1_GWF-(1,14800)
        499         10         49  2.79418512E-05                    1_GWF-(1,26350)  5.35592349E-06                    1_GWF-(1,14801)
        500         10         50  3.02533498E-05                    1_GWF-(1,11428)  4.60695323E-06                    1_GWF-(1,14800)
        501         11          1 -2.92320034E-05                    1_GWF-(1,11428)  8.77882981E-06                    1_GWF-(1,14801)
        502         11          2 -3.47382959E-05                    1_GWF-(1,26217)  8.59367406E-06                    1_GWF-(1,14800)
        503         11          3 -5.25788755E-05                    1_GWF-(1,26486)  6.81509766E-06                    1_GWF-(1,14801)
        504         11          4 -5.28681529E-05                    1_GWF-(1,26544)  3.68210620E-06                    1_GWF-(1,14800)
        505         11          5 -7.24519240E-05                    1_GWF-(1,26486)  1.35231737E-06                    1_GWF-(1,10481)
        506         11          6 -6.05705440E-05                    1_GWF-(1,26487)  4.21963080E-06                    1_GWF-(1,14801)
        507         11          7 -5.30111734E-05                    1_GWF-(1,26486)  3.80706812E-06                    1_GWF-(1,14800)
        508         11          8 -4.30252907E-05                    1_GWF-(1,26487)  2.23753686E-06                    1_GWF-(1,14801)
        509         11          9 -4.04630655E-05                    1_GWF-(1,26420)  2.85735402E-06                    1_GWF-(1,10650)
        510         11         10 -4.48772477E-05                    1_GWF-(1,26422)  2.77127888E-06                    1_GWF-(1,14800)
        511         11         11  5.25135639E-05                    1_GWF-(1,26422)  4.12771972E-06                    1_GWF-(1,14801)
        512         11         12  5.06258524E-05                    1_GWF-(1,26350)  4.34278661E-06                    1_GWF-(1,14800)
        513         11         13  5.16164453E-05                    1_GWF-(1,26422)  4.55992714E-06                    1_GWF-(1,14801)
        514         11         14  4.56317650E-05                    1_GWF-(1,26350)  4.04344930E-06                    1_GWF-(1,14800)
        515         11         15  3.77264349E-05                    1_GWF-(1,26422)  3.91643725E-06                    1_GWF-(1,14801)
        516         11         16  2.55781424E-05                    1_GWF-(1,26350)  3.72050511E-06                    1_GWF-(1,14800)
        517         11         17 -3.21648590E-05                    1_GWF-(1,20216)  3.65971597E-06                    1_GWF-(1,14801)
        518         11         18 -3.09493317E-05                    1_GWF-(1,20222)  3.69931204E-06                    1_GWF-(1,10650)
        519         11         19 -3.03532844E-05                    1_GWF-(1,20584)  2.68836140E-06                    1_GWF-(1,14801)
        520         11         20 -3.43632390E-05                    1_GWF-(1,26665)  1.98331870E-06                    1_GWF-(1,10650)
        521         11         21  2.99733199E-05                    1_GWF-(1,26665)  6.38373499E-07                    1_GWF-(1,14800)
        522         11         22 -2.66385465E-05                    1_GWF-(1,26589)  2.02229047E-06                    1_GWF-(1,14801)
        523         11         23 -3.27349742E-05                    1_GWF-(1,26588)  2.43148539E-06                    1_GWF-(1,14800)
        524         11         24  2.97029034E-05                    1_GWF-(1,20231)  2.32476962E-06                    1_GWF-(1,14801)
        525         11         25  3.55557827E-05                    1_GWF-(1,20219)  2.20916835E-06                    1_GWF-(1,10650)
        526         11         26  2.28078498E-05                    1_GWF-(1,20509) -1.73913965E-06                    1_GWF-(1,14800)
        527         11         27 -2.87342292E-05                    1_GWF-(1,26622)  7.14251252E-07                    1_GWF-(1,14800)
        528         11         28  2.82793163E-05                    1_GWF-(1,26622)  8.96621151E-07                    1_GWF-(1,10650)
        529         11         29  2.48444230E-05                    1_GWF-(1,26623) -1.51734568E-06                    1_GWF-(1,10650)
        530         11         30 -2.21003936E-05                    1_GWF-(1,20166)  1.63719583E-06                    1_GWF-(1,14800)
        531         11         31  3.02128839E-05                    1_GWF-(1,26588)  1.06677308E-06                    1_GWF-(1,14801)
        532         11         32  2.91992320E-05                    1_GWF-(1,26543) -8.85210895E-07                    1_GWF-(1,10650)
        533         11         33  2.03107106E-05                    1_GWF-(1,26588) -9.62685616E-07                    1_GWF-(1,14801)
        534         11         34  1.33365064E-05                    1_GWF-(1,26543) -1.52930624E-06                    1_GWF-(1,14800)
        535         11         35  1.63670339E-05                    1_GWF-(1,20207) -1.78334207E-06                    1_GWF-(1,14801)
        536         11         36  1.09398851E-05                    1_GWF-(1,20220) -1.78432064E-06                    1_GWF-(1,14800)
        537         11         37 -1.01009899E-05                    1_GWF-(1,11428) -1.78739007E-06                    1_GWF-(1,14801)
        538         11         38 -1.03762276E-05                    1_GWF-(1,20215) -1.66099779E-06                    1_GWF-(1,14800)
        539         11         39 -1.07485090E-05                    1_GWF-(1,20214) -1.66917225E-06                    1_GWF-(1,14801)
        540         11         40 -1.06401554E-05                    1_GWF-(1,20559) -1.62353578E-06                    1_GWF-(1,14800)
        541         11         41 -1.20958633E-05                    1_GWF-(1,26486) -1.73330943E-06                    1_GWF-(1,14801)
        542         11         42 -1.06023306E-05                    1_GWF-(1,26217)  1.62103118E-06                    1_GWF-(1,14801)
        543         11         43 -1.21799567E-05                    1_GWF-(1,26218) -1.61302295E-06                    1_GWF-(1,10650)
        544         11         44  1.71769711E-05                    1_GWF-(1,26486) -1.01307756E-06                    1_GWF-(1,14800)
        545         11         45  1.82624316E-05                    1_GWF-(1,26487)  4.30357347E-07                    1_GWF-(1,15921)
        546         11         46  1.72432605E-05                    1_GWF-(1,26420) -1.25254765E-06                    1_GWF-(1,14801)
        547         11         47  1.60383334E-05                    1_GWF-(1,26487) -1.46193307E-06                    1_GWF-(1,14800)
        548         11         48 -1.22319806E-05                    1_GWF-(1,20916) -1.56784564E-06                    1_GWF-(1,14801)
        549         11         49 -1.70475065E-05                    1_GWF-(1,20234) -1.29113196E-06                    1_GWF-(1,14800)
        550         11         50  1.60578357E-05                    1_GWF-(1,11428)  1.91649966E-06                    1_GWF-(1,15910)
        551         12          1 -1.57586913E-05                    1_GWF-(1,11428) -1.37502612E-06                    1_GWF-(1,14800)
        552         12          2 -1.42213680E-05                    1_GWF-(1,26218) -1.57378727E-06                    1_GWF-(1,14801)
        553         12          3 -1.23144685E-05                    1_GWF-(1,26217) -1.25366858E-06                    1_GWF-(1,14800)
        554         12          4 -1.10472541E-05                    1_GWF-(1,26622) -9.36955647E-07                    1_GWF-(1,14801)
        555         12          5  1.49746397E-05                    1_GWF-(1,26622)  3.26701587E-07                    1_GWF-(1,15921)
        556         12          6  1.53963373E-05                    1_GWF-(1,26649) -6.51929489E-07                    1_GWF-(1,14800)
        557         12          7 -1.12699207E-05                    1_GWF-(1,26649) -9.76379033E-07                    1_GWF-(1,14801)
        558         12          8  8.56329352E-06                    1_GWF-(1,26218)  1.03605307E-06                    1_GWF-(1,14801)
        559         12          9  8.23408520E-06                    1_GWF-(1,26217) -1.15684623E-06                    1_GWF-(1,14801)
        560         12         10 -7.79839367E-06                    1_GWF-(1,11428)  1.16562753E-06                    1_GWF-(1,14801)
        561         12         11  7.55051985E-06                    1_GWF-(1,26543) -1.01361547E-06                    1_GWF-(1,14801)
        562         12         12  1.09425285E-05                    1_GWF-(1,26588) -5.41308956E-07                    1_GWF-(1,14800)
        563         12         13  1.22559421E-05                    1_GWF-(1,26543) -3.65773237E-07                    1_GWF-(1,14800)
        564         12         14  1.11628053E-05                    1_GWF-(1,26588) -9.05461094E-07                    1_GWF-(1,14801)
        565         12         15  6.92159715E-06                    1_GWF-(1,26486) -1.00669342E-06                    1_GWF-(1,14800)
        566         12         16 -9.70927773E-06                    1_GWF-(1,20208) -9.13482957E-07                    1_GWF-(1,14801)
        567         12         17 -9.86652201E-06                    1_GWF-(1,26487)  6.23720066E-07                    1_GWF-(1,14801)
        568         12         18 -1.10287330E-05                    1_GWF-(1,26420) -3.77854070E-07                    1_GWF-(1,15940)
        569         12         19 -1.13561209E-05                    1_GWF-(1,26487)  4.08472594E-07                    1_GWF-(1,14800)
        570         12         20 -1.26288374E-05                    1_GWF-(1,26588)  7.92610721E-07                    1_GWF-(1,14801)
        571         12         21  1.33911081E-05                    1_GWF-(1,20167)  9.85999318E-07                    1_GWF-(1,14800)
        572         12         22 -8.57178353E-06                    1_GWF-(1,20113)  1.14396859E-06                    1_GWF-(1,14801)
        573         12         23 -9.54816685E-06                    1_GWF-(1,20167)  1.10577005E-06                    1_GWF-(1,14800)
        574         12         24 -1.23756015E-05                    1_GWF-(1,20163) -9.38164305E-07                    1_GWF-(1,14800)
        575         12         25  1.02206289E-05                    1_GWF-(1,26666) -6.18235216E-07                    1_GWF-(1,14801)
        576         12         26  1.23107030E-05                    1_GWF-(1,26665) -2.08257570E-07                    1_GWF-(1,15941)
        577         12         27 -1.09490693E-05                    1_GWF-(1,26665)  4.27718103E-07                    1_GWF-(1,14801)
        578         12         28 -1.10846925E-05                    1_GWF-(1,26666)  7.62345991E-07                    1_GWF-(1,14800)
        579         12         29 -9.75629715E-06                    1_GWF-(1,26665)  8.99255339E-07                    1_GWF-(1,14801)
        580         12         30  7.38763869E-06                    1_GWF-(1,20214)  9.40332899E-07                    1_GWF-(1,14800)
        581         12         31  1.00721245E-05                    1_GWF-(1,20918)  9.29314348E-07                    1_GWF-(1,14801)
        582         12         32  9.45031766E-06                    1_GWF-(1,21261)  9.24903927E-07                    1_GWF-(1,14800)
        583         12         33  9.73388522E-06                    1_GWF-(1,20222)  9.94060429E-07                    1_GWF-(1,14801)
        584         12         34  9.49061768E-06                    1_GWF-(1,20212)  9.56352404E-07                    1_GWF-(1,14800)
        585         12         35 -8.02616529E-06                    1_GWF-(1,26486)  8.93941729E-07                    1_GWF-(1,14801)
        586         12         36 -1.17955486E-05                    1_GWF-(1,26487)  6.49067423E-07                    1_GWF-(1,14800)
        587         12         37 -1.34280036E-05                    1_GWF-(1,26486)  4.03310518E-07                    1_GWF-(1,10650)
        588         12         38 -1.33134386E-05                    1_GWF-(1,26487)  6.55216112E-07                    1_GWF-(1,14801)
        589         12         39 -1.05374403E-05                    1_GWF-(1,20569)  8.06194530E-07                    1_GWF-(1,14800)
        590         12         40 -1.05874132E-05                    1_GWF-(1,21291)  8.96689262E-07                    1_GWF-(1,14801)
        591         12         41 -8.83158514E-06                    1_GWF-(1,20606)  8.78267511E-07                    1_GWF-(1,14800)
        592         12         42 -6.36496179E-06                    1_GWF-(1,20700)  8.94890607E-07                    1_GWF-(1,14801)
        593         12         43  7.52294390E-06                    1_GWF-(1,26649)  6.71635505E-07                    1_GWF-(1,14800)
        594         12         44 -9.10464522E-06                    1_GWF-(1,26649)  2.26641016E-07                    1_GWF-(1,10650)
        595         12         45 -7.86821427E-06                    1_GWF-(1,26622)  7.35521303E-07                    1_GWF-(1,14801)
        596         12         46  6.31001842E-06                    1_GWF-(1,26622)  9.61549992E-07                    1_GWF-(1,14800)
        597         12         47  6.13899082E-06                    1_GWF-(1,26623)  9.57434431E-07                    1_GWF-(1,14801)
        598         12         48  4.84348298E-06                    1_GWF-(1,26586)  6.96392845E-07                    1_GWF-(1,14800)
        599         12         49 -4.82837076E-06                    1_GWF-(1,11428)  4.41331973E-07                    1_GWF-(1,14801)
        600         12         50  3.41641927E-06                    1_GWF-(1,11428)  1.94928943E-07                    1_GWF-(1,10652)
        601         13          1 -4.38974068E-06                    1_GWF-(1,26543)  3.63499113E-07                    1_GWF-(1,14801)
        602         13          2 -8.10058227E-06                    1_GWF-(1,26588)  2.37087137E-07                    1_GWF-(1,14800)
        603         13          3 -6.90619355E-06                    1_GWF-(1,26589)  1.29822112E-07                    1_GWF-(1,10650)
        604         13          4 -7.33224883E-06                    1_GWF-(1,26588)  2.95717628E-07                    1_GWF-(1,14801)
        605         13          5 -6.47587220E-06                    1_GWF-(1,26543)  3.36071338E-07                    1_GWF-(1,14800)
        606         13          6 -7.40067393E-06                    1_GWF-(1,26350)  3.69815433E-07                    1_GWF-(1,14801)
        607         13          7 -7.67739215E-06                    1_GWF-(1,26422)  3.30881786E-07                    1_GWF-(1,14800)
        608         13          8 -6.24892059E-06                    1_GWF-(1,26350)  2.17114671E-07                    1_GWF-(1,14801)
        609         13          9 -5.18573496E-06                    1_GWF-(1,26622)  1.27300747E-07                    1_GWF-(1,10650)
        610         13         10  5.81379180E-06                    1_GWF-(1,26622)  2.92186210E-07                    1_GWF-(1,14800)
        611         13         11  5.75344318E-06                    1_GWF-(1,26623)  3.17128374E-07                    1_GWF-(1,14801)
        612         13         12  5.67463980E-06                    1_GWF-(1,21270)  1.46725758E-07                    1_GWF-(1,14800)
        613         13         13  5.52805511E-06                    1_GWF-(1,26422)  1.59453330E-07                    1_GWF-(1,14800)
        614         13         14  5.35420931E-06                    1_GWF-(1,26420)  3.07682260E-07                    1_GWF-(1,14801)
        615         13         15  5.26931796E-06                    1_GWF-(1,26421)  3.68899869E-07                    1_GWF-(1,14800)
        616         13         16  5.30677854E-06                    1_GWF-(1,26420)  3.47150189E-07                    1_GWF-(1,14801)
        617         13         17  5.14288476E-06                    1_GWF-(1,26487)  1.76453240E-07                    1_GWF-(1,14800)
        618         13         18  5.97623188E-06                    1_GWF-(1,26486)  1.30956244E-07                    1_GWF-(1,10652)
        619         13         19 -4.17392485E-06                    1_GWF-(1,26486)  3.04333658E-07                    1_GWF-(1,14801)
        620         13         20 -3.48066576E-06                    1_GWF-(1,21260)  3.78333745E-07                    1_GWF-(1,14800)
        621         13         21 -3.24593736E-06                    1_GWF-(1,26486)  4.29101128E-07                    1_GWF-(1,14801)
        622         13         22 -2.60489225E-06                    1_GWF-(1,11428)  3.88658360E-07                    1_GWF-(1,14800)
        623         13         23  2.89509842E-06                    1_GWF-(1,26666)  3.39642581E-07                    1_GWF-(1,14801)
        624         13         24  3.14569748E-06                    1_GWF-(1,26665)  1.93077831E-07                    1_GWF-(1,14800)
        625         13         25 -3.83486663E-06                    1_GWF-(1,26665) -6.92512322E-08                    1_GWF-(1,15941)
        626         13         26 -3.22530973E-06                    1_GWF-(1,26666) -1.95892336E-07                    1_GWF-(1,14800)
        627         13         27  3.08305131E-06                    1_GWF-(1,20508) -3.10239439E-07                    1_GWF-(1,14801)
        628         13         28  3.19266091E-06                    1_GWF-(1,20164)  3.63092200E-07                    1_GWF-(1,14801)
        629         13         29  2.24269412E-06                    1_GWF-(1,19938) -3.28101041E-07                    1_GWF-(1,14801)
        630         13         30 -2.60758893E-06                    1_GWF-(1,20164)  3.08050454E-07                    1_GWF-(1,14801)
        631         13         31 -3.06443526E-06                    1_GWF-(1,20168)  2.77158886E-07                    1_GWF-(1,14800)
        632         13         32 -2.29538425E-06                    1_GWF-(1,20110)  2.52277959E-07                    1_GWF-(1,14801)
        633         13         33 -1.76726335E-06                    1_GWF-(1,20022) -2.15073085E-07                    1_GWF-(1,14801)
        634         13         34  2.18187914E-06                    1_GWF-(1,26487) -1.90090027E-07                    1_GWF-(1,14800)
        635         13         35  2.41719740E-06                    1_GWF-(1,26486) -1.13402864E-07                    1_GWF-(1,14801)
        636         13         36  2.52508101E-06                    1_GWF-(1,26487) -8.51850127E-08                    1_GWF-(1,14801)
        637         13         37 -2.30511720E-06                    1_GWF-(1,26487) -1.76702666E-07                    1_GWF-(1,14800)
        638         13         38  1.73470653E-06                    1_GWF-(1,26487) -2.03350195E-07                    1_GWF-(1,14801)
        639         13         39 -1.34455468E-06                    1_GWF-(1,26588) -1.75851077E-07                    1_GWF-(1,14800)
        640         13         40 -1.62445425E-06                    1_GWF-(1,26543) -1.36124523E-07                    1_GWF-(1,14801)
        641         13         41 -2.43823754E-06                    1_GWF-(1,26588)  4.92233663E-08                     1_GWF-(1,9290)
        642         13         42  2.50445081E-06                    1_GWF-(1,26588) -6.06969854E-08                    1_GWF-(1,14800)
        643         13         43 -2.35484877E-06                    1_GWF-(1,26588) -1.39049976E-07                    1_GWF-(1,14801)
        644         13         44  1.60601617E-06                    1_GWF-(1,26588) -1.60854995E-07                    1_GWF-(1,14800)
        645         13         45  1.54900241E-06                    1_GWF-(1,20231) -1.66921135E-07                    1_GWF-(1,14801)
        646         13         46  2.28240008E-06                    1_GWF-(1,26649) -1.16704737E-07                    1_GWF-(1,14800)
        647         13         47 -2.51830149E-06                    1_GWF-(1,26649) -5.25867180E-08                    1_GWF-(1,15921)
        648         13         48  2.36387432E-06                    1_GWF-(1,26649) -1.15689908E-07                    1_GWF-(1,14801)
        649         13         49 -1.70923510E-06                    1_GWF-(1,20234) -1.80022541E-07                    1_GWF-(1,14800)
        650         13         50 -1.70180298E-06                    1_GWF-(1,20228) -2.40632794E-07                    1_GWF-(1,14801)
        651         14          1  1.46377859E-06                    1_GWF-(1,11428) -2.94081636E-07                    1_GWF-(1,14800)
        652         14          2  1.49852533E-06                    1_GWF-(1,20233) -1.55872948E-07                    1_GWF-(1,14801)
        653         14          3 -1.70778049E-06                    1_GWF-(1,26649) -9.10234065E-08                    1_GWF-(1,14800)
        654         14          4  2.02678372E-06                    1_GWF-(1,26649) -5.69248412E-08                    1_GWF-(1,14800)
        655         14          5 -1.85839700E-06                    1_GWF-(1,26649) -1.71451521E-07                    1_GWF-(1,14801)
        656         14          6 -1.61305321E-06                    1_GWF-(1,11428) -1.62692101E-07                    1_GWF-(1,14800)
        657         14          7 -9.79429078E-07                    1_GWF-(1,24343) -1.41372671E-07                    1_GWF-(1,14801)
        658         15          1  1.21234349E-06                    1_GWF-(1,26588) -1.36548765E-07                    1_GWF-(1,14800)
        659         15          2  1.16331871E-06                    1_GWF-(1,26543) -6.72041916E-08                    1_GWF-(1,14801)
        660         15          3  1.11563410E-06                    1_GWF-(1,26588) -6.49032903E-08                    1_GWF-(1,14801)
        661         15          4  8.37824694E-07                    1_GWF-(1,26622) -1.47831091E-07                    1_GWF-(1,14800)
        662         16          1 -7.47066337E-07                    1_GWF-(1,26622) -1.16551637E-07                    1_GWF-(1,14801)
 --------------------------------------------------------------------------------------------------------------------------------------



 MEMORY MANAGER TOTAL STORAGE BY DATA TYPE, IN MEGABYTES
 -------------------------------
                    ALLOCATED   
 DATA TYPE           MEMORY     
 -------------------------------
 Character        4.66090000E-02
 Logical          4.40000000E-05
 Integer          5.2037920     
 Real             11.901376     
 -------------------------------
 Total            17.151821     
 -------------------------------


 
 Run end date and time (yyyy/mm/dd hh:mm:ss): 2022/06/01 17:09:05
 Elapsed run time:  0.652 Seconds
 Normal termination of simulation.
