                                   MODFLOW 6
                U.S. GEOLOGICAL SURVEY MODULAR HYDROLOGIC MODEL
                          GROUNDWATER FLOW MODEL (GWF)
                            VERSION 6.2.2 07/30/2021

   MODFLOW 6 compiled Jul 31 2021 14:22:53 with IFORT compiler (ver. 19.10.3)

This software has been approved for release by the U.S. Geological 
Survey (USGS). Although the software has been subjected to rigorous 
review, the USGS reserves the right to update the software as needed 
pursuant to further analysis and review. No warranty, expressed or 
implied, is made by the USGS or the U.S. Government as to the 
functionality of the software and related material nor shall the 
fact of release constitute any such warranty. Furthermore, the 
software is released on condition that neither the USGS nor the U.S. 
Government shall be held liable for any damages resulting from its 
authorized or unauthorized use. Also refer to the USGS Water 
Resources Software User Rights Notice for complete use, copyright, 
and distribution information.


System command used to initiate simulation:
mf6

MODFLOW was compiled using uniform precision.

Real Variables
  KIND: 8
  TINY (smallest non-zero value):    2.225074-308
  HUGE (largest value):    1.797693+308
  PRECISION: 15
  BIT SIZE: 64

Integer Variables
  KIND: 4
  HUGE (largest value): 2147483647
  BIT SIZE: 32

Long Integer Variables
  KIND: 8
  HUGE (largest value): 9223372036854775807
  BIT SIZE: 64

Logical Variables
  KIND: 4
  BIT SIZE: 32
 

 OPENED ./ml.disv
 FILE TYPE:DISV6                  UNIT 1005   STATUS:OLD                 
 FORMAT:FORMATTED              ACCESS:SEQUENTIAL          
 ACTION:READ                


 OPENED ./ml.ic
 FILE TYPE:IC6                    UNIT 1006   STATUS:OLD                 
 FORMAT:FORMATTED              ACCESS:SEQUENTIAL          
 ACTION:READ                


 OPENED ./ml.npf
 FILE TYPE:NPF6                   UNIT 1007   STATUS:OLD                 
 FORMAT:FORMATTED              ACCESS:SEQUENTIAL          
 ACTION:READ                


 OPENED ./ml.ghb
 FILE TYPE:GHB6                   UNIT 1008   STATUS:OLD                 
 FORMAT:FORMATTED              ACCESS:SEQUENTIAL          
 ACTION:READ                


 OPENED ./ml.rcha
 FILE TYPE:RCH6                   UNIT 1009   STATUS:OLD                 
 FORMAT:FORMATTED              ACCESS:SEQUENTIAL          
 ACTION:READ                


 OPENED ./ml.obs
 FILE TYPE:OBS6                   UNIT 1010   STATUS:OLD                 
 FORMAT:FORMATTED              ACCESS:SEQUENTIAL          
 ACTION:READ                


 OPENED ./ml.oc
 FILE TYPE:OC6                    UNIT 1011   STATUS:OLD                 
 FORMAT:FORMATTED              ACCESS:SEQUENTIAL          
 ACTION:READ                


 OPENED ml.wel
 FILE TYPE:WEL6                   UNIT 1012   STATUS:OLD                 
 FORMAT:FORMATTED              ACCESS:SEQUENTIAL          
 ACTION:READ                


 OPENED ml.drn
 FILE TYPE:DRN6                   UNIT 1013   STATUS:OLD                 
 FORMAT:FORMATTED              ACCESS:SEQUENTIAL          
 ACTION:READ                


 OPENED ml.riv
 FILE TYPE:RIV6                   UNIT 1014   STATUS:OLD                 
 FORMAT:FORMATTED              ACCESS:SEQUENTIAL          
 ACTION:READ                


 DISV -- VERTEX GRID DISCRETIZATION PACKAGE, VERSION 1 : 12/23/2015 - INPUT READ FROM UNIT 1005


 # File generated by Flopy version 3.3.5 on 04/25/2022 at 00:15:14.

 PROCESSING DISCRETIZATION OPTIONS
    MODEL LENGTH UNIT IS METERS
    XORIGIN SPECIFIED AS     405575.681000000    
    YORIGIN SPECIFIED AS     6423306.54000000    
 END OF DISCRETIZATION OPTIONS

 PROCESSING DISCRETIZATION DIMENSIONS
   NLAY = 1
   NCPL = 26674
   NVERT = 27090
 END OF DISCRETIZATION DIMENSIONS

 PROCESSING GRIDDATA
 END PROCESSING GRIDDATA

 PROCESSING VERTICES
   SUCCESSFULLY READ 27090 (X,Y) COORDINATES
   MINIMUM X COORDINATE =     405575.681000000    
   MAXIMUM X COORDINATE =     413975.681000000    
   MINIMUM Y COORDINATE =     6423306.54000000    
   MAXIMUM Y COORDINATE =     6432506.54000000    
 END PROCESSING VERTICES

 PROCESSING CELL2D
   SUCCESSFULLY READ 26674 CELL2D INFORMATION ENTRIES
   MINIMUM X CELL CENTER =     405675.681000000    
   MAXIMUM X CELL CENTER =     413875.681000000    
   MINIMUM Y CELL CENTER =     6423406.54000000    
   MAXIMUM Y CELL CENTER =     6432406.54000000    
   MAXIMUM NUMBER OF CELL2D VERTICES IS 6 FOR CELL 208
 END PROCESSING VERTICES

 NPF -- NODE PROPERTY FLOW PACKAGE, VERSION 1, 3/30/2015 INPUT READ FROM UNIT 1007


 # File generated by Flopy version 3.3.5 on 04/25/2022 at 00:15:17.
 PROCESSING NPF OPTIONS
    CELL-BY-CELL FLOW INFORMATION WILL BE SAVED TO BINARY FILE WHENEVER ICBCFL IS NOT ZERO.
    SPECIFIC DISCHARGE WILL BE CALCULATED AT CELL CENTERS AND WRITTEN TO DATA-SPDIS IN BUDGET FILE WHEN REQUESTED.
 END OF NPF OPTIONS

 WEL   -- WEL PACKAGE, VERSION 8, 2/22/2014 INPUT READ FROM UNIT 1012
 # File generated by Flopy version 3.3.5 on 04/25/2022 at 00:15:17.

 PROCESSING WEL OPTIONS
    WEL BOUNDARIES HAVE NAMES IN LAST COLUMN.
    FLOWS WILL BE SAVED TO BUDGET FILE SPECIFIED IN OUTPUT CONTROL
 END OF WEL OPTIONS

 PROCESSING WEL DIMENSIONS
    MAXBOUND =       9
 END OF WEL DIMENSIONS

 DRN   -- DRN PACKAGE, VERSION 8, 2/22/2014 INPUT READ FROM UNIT 1013
 # File generated by Flopy version 3.3.5 on 04/25/2022 at 00:15:17.

 PROCESSING DRN OPTIONS
    DRN BOUNDARIES HAVE NAMES IN LAST COLUMN.
    FLOWS WILL BE SAVED TO BUDGET FILE SPECIFIED IN OUTPUT CONTROL

 OPENED ml.drn.obs
 FILE TYPE:OBS   UNIT 1016   STATUS:OLD                 
 FORMAT:FORMATTED              ACCESS:SEQUENTIAL          
 ACTION:READ                

 END OF DRN OPTIONS

 PROCESSING DRN DIMENSIONS
    MAXBOUND =     133
 END OF DRN DIMENSIONS

 RIV   -- RIV PACKAGE, VERSION 8, 2/22/2014 INPUT READ FROM UNIT 1014
 # File generated by Flopy version 3.3.5 on 04/25/2022 at 00:15:17.

 PROCESSING RIV OPTIONS
    AUXILIARY RIV VARIABLE: FID             
    RIV BOUNDARIES HAVE NAMES IN LAST COLUMN.
    FLOWS WILL BE SAVED TO BUDGET FILE SPECIFIED IN OUTPUT CONTROL
 END OF RIV OPTIONS

 PROCESSING RIV DIMENSIONS
    MAXBOUND =     794
 END OF RIV DIMENSIONS

 GHB   -- GHB PACKAGE, VERSION 8, 2/22/2014 INPUT READ FROM UNIT 1008
 # File generated by Flopy version 3.3.5 on 04/25/2022 at 00:15:17.

 PROCESSING GHB OPTIONS
    GHB BOUNDARIES HAVE NAMES IN LAST COLUMN.
    FLOWS WILL BE SAVED TO BUDGET FILE SPECIFIED IN OUTPUT CONTROL
 END OF GHB OPTIONS

 PROCESSING GHB DIMENSIONS
    MAXBOUND =     153
 END OF GHB DIMENSIONS

 RCH   -- RCH PACKAGE, VERSION 8, 2/22/2014 INPUT READ FROM UNIT 1009
 # File generated by Flopy version 3.3.5 on 04/25/2022 at 00:15:17.

 PROCESSING RCH OPTIONS
    RECHARGE INPUT WILL BE READ AS ARRAY(S).
    FLOWS WILL BE SAVED TO BUDGET FILE SPECIFIED IN OUTPUT CONTROL
 END OF RCH OPTIONS

 IC -- INITIAL CONDITIONS PACKAGE, VERSION 8, 3/28/2015 INPUT READ FROM UNIT 1006
 # File generated by Flopy version 3.3.5 on 04/25/2022 at 00:15:17.
 PROCESSING GRIDDATA

     INITIAL HEAD =   15.00000    
 END PROCESSING GRIDDATA
 PROCESSING GRIDDATA

                ICELLTYPE = 0

 OPENED ../com_ext/k.txt
 FILE TYPE:OPEN/CLOSE   UNIT 1017   STATUS:OLD                 
 FORMAT:FORMATTED              ACCESS:SEQUENTIAL          
 ACTION:READ                

 K33 not provided.  Assuming K33 = K.
 K22 not provided.  Assuming K22 = K.
 END PROCESSING GRIDDATA

The observation utility is active for "ML"
 # File generated by Flopy version 3.3.5 on 04/25/2022 at 00:15:17.

Processing observation options:

Text output number of digits of precision set to: 10
The PRINT_INPUT option has been specified.


 OBSERVATIONS READ FROM FILE "ml.obs"
 ----------------------------------------------------------------------------------------------------------------------------------------------------------------------------------------------------------------------------
 NAME                                     TYPE                                       TIME         LOCATION DATA                              OUTPUT FILENAME                                                                 
 ----------------------------------------------------------------------------------------------------------------------------------------------------------------------------------------------------------------------------
 PRG                                      CONTINUOUS  HEAD                           ALL TIMES    "1 16523"                                  sim/hds.csv                                                                     
 P8                                       CONTINUOUS  HEAD                           ALL TIMES    "1 10323"                                  sim/hds.csv                                                                     
 P24                                      CONTINUOUS  HEAD                           ALL TIMES    "1 9594"                                   sim/hds.csv                                                                     
 P25                                      CONTINUOUS  HEAD                           ALL TIMES    "1 13966"                                  sim/hds.csv                                                                     
 P32                                      CONTINUOUS  HEAD                           ALL TIMES    "1 15787"                                  sim/hds.csv                                                                     
 P33                                      CONTINUOUS  HEAD                           ALL TIMES    "1 15825"                                  sim/hds.csv                                                                     
 PF                                       CONTINUOUS  HEAD                           ALL TIMES    "1 21048"                                  sim/hds.csv                                                                     
 PH                                       CONTINUOUS  HEAD                           ALL TIMES    "1 20781"                                  sim/hds.csv                                                                     
 PZHM1                                    CONTINUOUS  HEAD                           ALL TIMES    "1 14521"                                  sim/hds.csv                                                                     
 P26                                      CONTINUOUS  HEAD                           ALL TIMES    "1 13141"                                  sim/hds.csv                                                                     
 P27                                      CONTINUOUS  HEAD                           ALL TIMES    "1 8465"                                   sim/hds.csv                                                                     
 P28                                      CONTINUOUS  HEAD                           ALL TIMES    "1 8924"                                   sim/hds.csv                                                                     
 P29                                      CONTINUOUS  HEAD                           ALL TIMES    "1 4524"                                   sim/hds.csv                                                                     
 P30                                      CONTINUOUS  HEAD                           ALL TIMES    "1 5255"                                   sim/hds.csv                                                                     
 R20                                      CONTINUOUS  HEAD                           ALL TIMES    "1 10676"                                  sim/hds.csv                                                                     
 R21                                      CONTINUOUS  HEAD                           ALL TIMES    "1 10403"                                  sim/hds.csv                                                                     
 P34                                      CONTINUOUS  HEAD                           ALL TIMES    "1 15131"                                  sim/hds.csv                                                                     
 P37                                      CONTINUOUS  HEAD                           ALL TIMES    "1 15755"                                  sim/hds.csv                                                                     
 P38                                      CONTINUOUS  HEAD                           ALL TIMES    "1 15045"                                  sim/hds.csv                                                                     
 P39                                      CONTINUOUS  HEAD                           ALL TIMES    "1 9637"                                   sim/hds.csv                                                                     
 P40                                      CONTINUOUS  HEAD                           ALL TIMES    "1 9312"                                   sim/hds.csv                                                                     
 AP1                                      CONTINUOUS  HEAD                           ALL TIMES    "1 9702"                                   sim/hds.csv                                                                     
 RCK1                                     CONTINUOUS  HEAD                           ALL TIMES    "1 15900"                                  sim/hds.csv                                                                     
 RCK2                                     CONTINUOUS  HEAD                           ALL TIMES    "1 15199"                                  sim/hds.csv                                                                     
 P23                                      CONTINUOUS  HEAD                           ALL TIMES    "1 6409"                                   sim/hds.csv                                                                     
 ----------------------------------------------------------------------------------------------------------------------------------------------------------------------------------------------------------------------------


    BINARY GRID INFORMATION WILL BE WRITTEN TO:
      UNIT NUMBER: 1019
      FILE NAME: /srv/common/ptrack/case_study/pst/ml_02/./ml.disv.grb

 OPENED /srv/common/ptrack/case_study/pst/ml_02/./ml.disv.grb
 FILE TYPE:DATA(BINARY)   UNIT 1019   STATUS:REPLACE             
 FORMAT:UNFORMATTED            ACCESS:STREAM              
 ACTION:READWRITE           

      THE LAST TIME STEP WILL BE PRINTED
      THE LAST TIME STEP WILL BE PRINTED
 # File generated by Flopy version 3.3.5 on 04/25/2022 at 00:15:17.

 PROCESSING OC OPTIONS

    BUDGET INFORMATION WILL BE WRITTEN TO:
      UNIT NUMBER: 1020
      FILE NAME: ml.cbc

 OPENED ml.cbc
 FILE TYPE:DATA(BINARY)   UNIT 1020   STATUS:REPLACE             
 FORMAT:UNFORMATTED            ACCESS:STREAM              
 ACTION:READWRITE           

    HEAD INFORMATION WILL BE WRITTEN TO:
      UNIT NUMBER: 1021
      FILE NAME: ml.hds

 OPENED ml.hds
 FILE TYPE:DATA(BINARY)   UNIT 1021   STATUS:REPLACE             
 FORMAT:UNFORMATTED            ACCESS:STREAM              
 ACTION:READWRITE           

 END OF OC OPTIONS

The observation utility is active for "DRN_0"
 # File generated by Flopy version 3.3.5 on 04/25/2022 at 00:15:17.

Processing observation options:



start timestep kper="1" kstp="1" mode="normal"


 BEGIN READING OUTPUT CONTROL FOR STRESS PERIOD 1
      THE LAST TIME STEP WILL BE SAVED
      THE LAST TIME STEP WILL BE SAVED

 END READING OUTPUT CONTROL FOR STRESS PERIOD 1

 OPENED ext/well_spd_1.txt
 FILE TYPE:OPEN/CLOSE   UNIT 1023   STATUS:OLD                 
 FORMAT:FORMATTED              ACCESS:SEQUENTIAL          
 ACTION:READ                


 OPENED ext/drn_spd_1.txt
 FILE TYPE:OPEN/CLOSE   UNIT 1024   STATUS:OLD                 
 FORMAT:FORMATTED              ACCESS:SEQUENTIAL          
 ACTION:READ                


 OPENED ext/riv_spd_1.txt
 FILE TYPE:OPEN/CLOSE   UNIT 1025   STATUS:OLD                 
 FORMAT:FORMATTED              ACCESS:SEQUENTIAL          
 ACTION:READ                


 OPENED ../com_ext/ghb_spd_1.txt
 FILE TYPE:OPEN/CLOSE   UNIT 1026   STATUS:OLD                 
 FORMAT:FORMATTED              ACCESS:SEQUENTIAL          
 ACTION:READ                


 OPENED ../com_ext/rech_spd_1.txt
 FILE TYPE:OPEN/CLOSE   UNIT 1027   STATUS:OLD                 
 FORMAT:FORMATTED              ACCESS:SEQUENTIAL          
 ACTION:READ                


 SLN_1 INNER ITERATION SUMMARY
 --------------------------------------------------------------------------------------------------------------------------------------
      TOTAL      OUTER      INNER                                                            MAXIMUM                                   
  ITERATION  ITERATION  ITERATION  MAXIMUM CHANGE      MAXIMUM CHANGE MODEL-(CELLID)        RESIDUAL    MAXIMUM RESIDUAL MODEL-(CELLID)
 --------------------------------------------------------------------------------------------------------------------------------------
          1          1          1       183.02595                    1_GWF-(1,26381)       1.9458423                     1_GWF-(1,7788)
          2          1          2       273.13282                    1_GWF-(1,26380)      -1.1319666                    1_GWF-(1,15907)
          3          1          3       157.75177                    1_GWF-(1,26444)      0.85985016                    1_GWF-(1,15907)
          4          1          4       83.450480                    1_GWF-(1,26380)      0.57258426                    1_GWF-(1,15226)
          5          1          5       66.860426                    1_GWF-(1,26520)     -0.37972261                    1_GWF-(1,15221)
          6          1          6       60.564856                    1_GWF-(1,26572)      0.46050907                    1_GWF-(1,15216)
          7          1          7       62.563261                    1_GWF-(1,26648)      0.40514115                    1_GWF-(1,15226)
          8          1          8       53.683025                    1_GWF-(1,26649)     -0.36463208                    1_GWF-(1,15226)
          9          1          9       39.138029                    1_GWF-(1,26589)      0.33219825                    1_GWF-(1,15221)
         10          1         10       32.749561                    1_GWF-(1,26543)     -0.17139991                    1_GWF-(1,15216)
         11          1         11       24.915440                    1_GWF-(1,26544)     -0.15701544                    1_GWF-(1,15226)
         12          1         12       21.047250                    1_GWF-(1,26420)      0.19894285                    1_GWF-(1,15221)
         13          1         13       18.518233                    1_GWF-(1,26422) -6.98427047E-02                    1_GWF-(1,15216)
         14          1         14       13.383395                    1_GWF-(1,26350) -9.26378261E-02                    1_GWF-(1,15221)
         15          1         15       8.6300171                    1_GWF-(1,26218)      0.10007818                    1_GWF-(1,15221)
         16          1         16      -8.2822198                    1_GWF-(1,26622)  4.54268956E-02                    1_GWF-(1,11047)
         17          1         17      -6.5693157                    1_GWF-(1,26623)     -0.11876354                    1_GWF-(1,15221)
         18          1         18      -6.2165931                    1_GWF-(1,26543)      0.12219553                    1_GWF-(1,15221)
         19          1         19      -6.9031008                    1_GWF-(1,26588)  6.15467778E-02                    1_GWF-(1,11152)
         20          1         20       10.433170                    1_GWF-(1,26588)     -0.10827355                    1_GWF-(1,15221)
         21          1         21      -8.4051605                    1_GWF-(1,26588)  6.75693671E-02                    1_GWF-(1,15221)
         22          1         22      -8.7462296                    1_GWF-(1,26543)  7.47862110E-02                    1_GWF-(1,15910)
         23          1         23      -7.7222716                    1_GWF-(1,26544)     -0.11423745                    1_GWF-(1,15221)
         24          1         24      -11.109785                    1_GWF-(1,26486)  5.14853110E-02                    1_GWF-(1,15221)
         25          1         25      -10.324399                    1_GWF-(1,26487)  8.71548718E-02                    1_GWF-(1,15910)
         26          1         26       10.922606                    1_GWF-(1,26487) -9.03367845E-02                    1_GWF-(1,15221)
         27          1         27       10.600977                    1_GWF-(1,26420) -5.26159536E-02                    1_GWF-(1,11203)
         28          1         28       6.3480995                    1_GWF-(1,26487)  6.36703487E-02                    1_GWF-(1,15910)
         29          1         29       4.5351324                    1_GWF-(1,26542) -5.85369437E-02                    1_GWF-(1,15221)
         30          1         30       5.1723527                    1_GWF-(1,26623) -3.41213086E-02                    1_GWF-(1,11050)
         31          1         31       3.8684575                    1_GWF-(1,26586)  4.61540467E-02                    1_GWF-(1,15910)
         32          1         32       3.9074602                    1_GWF-(1,26422) -5.11779497E-02                    1_GWF-(1,11203)
         33          1         33       4.3741936                    1_GWF-(1,26544) -4.38936646E-02                    1_GWF-(1,11200)
         34          1         34       3.9546133                    1_GWF-(1,26665)  2.86761846E-02                    1_GWF-(1,15910)
         35          1         35       3.5026604                    1_GWF-(1,26350) -2.89885888E-02                    1_GWF-(1,15221)
         36          1         36       3.7978068                    1_GWF-(1,26422) -2.45681316E-02                    1_GWF-(1,11200)
         37          1         37      -2.7540377                    1_GWF-(1,26422) -2.39844965E-02                    1_GWF-(1,11152)
         38          1         38      -3.4976809                    1_GWF-(1,26350) -2.82388647E-02                    1_GWF-(1,15216)
         39          1         39      -2.3825103                    1_GWF-(1,26622) -3.55285715E-02                    1_GWF-(1,11206)
         40          1         40      -2.4396887                    1_GWF-(1,26648)  2.76184033E-02                    1_GWF-(1,11108)
         41          1         41      -1.8792454                    1_GWF-(1,26649)  2.93768577E-02                    1_GWF-(1,11159)
         42          1         42      -1.7243666                    1_GWF-(1,26623)  3.62109264E-02                    1_GWF-(1,11197)
         43          1         43      -1.6341906                    1_GWF-(1,26586) -3.22128424E-02                    1_GWF-(1,11206)
         44          1         44      -1.2419403                    1_GWF-(1,26543)  3.97806529E-02                    1_GWF-(1,11206)
         45          1         45      -1.2238716                    1_GWF-(1,26486)  2.41110415E-02                    1_GWF-(1,11201)
         46          1         46       1.0244336                    1_GWF-(1,26649) -2.13274437E-02                    1_GWF-(1,11201)
         47          1         47       1.1862225                    1_GWF-(1,26648) -2.19370100E-02                    1_GWF-(1,12427)
         48          1         48      -1.5762452                    1_GWF-(1,26218)  2.49347035E-02                    1_GWF-(1,11197)
         49          1         49      -1.6107442                    1_GWF-(1,26217) -1.72603537E-02                    1_GWF-(1,11206)
         50          1         50       1.1552806                    1_GWF-(1,26217)  1.34641154E-02                    1_GWF-(1,11206)
         51          2          1      -609.76359                    1_GWF-(1,26381)      -3.3994045                    1_GWF-(1,26381)
         52          2          2      -220.00884                    1_GWF-(1,26513)       1.1520475                    1_GWF-(1,26381)
         53          2          3      -104.65383                    1_GWF-(1,26440)      0.72260137                    1_GWF-(1,26506)
         54          2          4      -62.921090                    1_GWF-(1,26665)     -0.29519500                    1_GWF-(1,26506)
         55          2          5      -52.733453                    1_GWF-(1,26649)      0.28521176                    1_GWF-(1,26381)
         56          2          6      -45.646990                    1_GWF-(1,26589)     -0.30903720                    1_GWF-(1,26381)
         57          2          7      -41.569043                    1_GWF-(1,26588)     -0.25961262                    1_GWF-(1,26506)
         58          2          8      -32.170354                    1_GWF-(1,26544)      0.13360763                    1_GWF-(1,26506)
         59          2          9      -25.670075                    1_GWF-(1,26487)     -0.11629179                    1_GWF-(1,26381)
         60          2         10      -19.088215                    1_GWF-(1,26421)     -0.12245014                    1_GWF-(1,26506)
         61          2         11      -17.115901                    1_GWF-(1,26348)  5.25693435E-02                    1_GWF-(1,26665)
         62          2         12      -13.076718                    1_GWF-(1,26218) -7.81657519E-02                    1_GWF-(1,26381)
         63          2         13      -7.9574314                    1_GWF-(1,26218) -7.32862162E-02                    1_GWF-(1,26506)
         64          2         14      -6.6409823                    1_GWF-(1,26649)  2.97219425E-02                    1_GWF-(1,26551)
         65          2         15      -8.1136937                    1_GWF-(1,26622) -6.70705754E-02                    1_GWF-(1,26381)
         66          2         16      -8.4552856                    1_GWF-(1,26623) -7.82959933E-02                    1_GWF-(1,26506)
         67          2         17      -7.0844039                    1_GWF-(1,26622)  4.21888571E-02                    1_GWF-(1,26551)
         68          2         18       7.0696173                    1_GWF-(1,26422) -7.94750259E-02                    1_GWF-(1,26381)
         69          2         19       7.0742622                    1_GWF-(1,26588) -7.34830481E-02                    1_GWF-(1,26506)
         70          2         20       9.0344244                    1_GWF-(1,26543) -3.93330737E-02                    1_GWF-(1,26447)
         71          2         21       10.399123                    1_GWF-(1,26588) -9.07334486E-02                    1_GWF-(1,26381)
         72          2         22       10.316438                    1_GWF-(1,26543) -6.94547356E-02                    1_GWF-(1,26506)
         73          2         23       7.3844720                    1_GWF-(1,26542) -5.50758767E-02                    1_GWF-(1,26447)
         74          2         24      -7.9144837                    1_GWF-(1,26487) -9.88266950E-02                    1_GWF-(1,26381)
         75          2         25      -10.295598                    1_GWF-(1,26486) -5.41193738E-02                    1_GWF-(1,26506)
         76          2         26      -11.296297                    1_GWF-(1,26487)  8.02118816E-02                    1_GWF-(1,26381)
         77          2         27      -7.8431046                    1_GWF-(1,26486)      0.10260071                    1_GWF-(1,26506)
         78          2         28      -4.5937377                    1_GWF-(1,26477) -5.02315969E-02                    1_GWF-(1,26506)
         79          2         29      -3.0251482                    1_GWF-(1,26649)  3.79358578E-02                    1_GWF-(1,26381)
         80          2         30       3.1955551                    1_GWF-(1,26420)  6.27796819E-02                    1_GWF-(1,26506)
         81          2         31      -2.7733159                    1_GWF-(1,26663) -4.55196493E-02                    1_GWF-(1,26506)
         82          2         32      -2.9670880                    1_GWF-(1,26421) -2.25416453E-02                    1_GWF-(1,26378)
         83          2         33      -3.7853475                    1_GWF-(1,26350) -4.93004790E-02                    1_GWF-(1,26381)
         84          2         34      -2.8026703                    1_GWF-(1,26422) -5.12574289E-02                    1_GWF-(1,26506)
         85          2         35       3.7914016                    1_GWF-(1,26422) -2.46991206E-02                    1_GWF-(1,26378)
         86          2         36       3.2690247                    1_GWF-(1,26350) -3.49305192E-02                    1_GWF-(1,26381)
         87          2         37      -3.0775533                    1_GWF-(1,26350) -4.56784392E-02                    1_GWF-(1,26506)
         88          2         38       2.8384325                    1_GWF-(1,26350) -2.01056368E-02                    1_GWF-(1,26378)
         89          2         39       3.3007456                    1_GWF-(1,26422) -3.02733717E-02                    1_GWF-(1,26381)
         90          2         40       2.1863681                    1_GWF-(1,26350) -4.32470789E-02                    1_GWF-(1,26506)
         91          2         41       1.3629529                    1_GWF-(1,26217)  2.68071162E-02                    1_GWF-(1,26506)
         92          2         42      0.96622215                    1_GWF-(1,26218)  1.75200763E-02                     1_GWF-(1,9691)
         93          2         43       1.0497156                    1_GWF-(1,26663)  2.71544976E-02                    1_GWF-(1,26381)
         94          2         44     -0.90805658                    1_GWF-(1,26217)  2.79637117E-02                    1_GWF-(1,26506)
         95          2         45     -0.75533049                    1_GWF-(1,26192)  2.30603471E-02                     1_GWF-(1,9692)
         96          2         46     -0.64276863                    1_GWF-(1,26242)  3.80512700E-02                     1_GWF-(1,9691)
         97          2         47     -0.76610434                    1_GWF-(1,26218) -3.96593956E-02                     1_GWF-(1,9691)
         98          2         48      -1.0733405                    1_GWF-(1,26217)  7.07770377E-02                     1_GWF-(1,9691)
         99          2         49      0.73809898                    1_GWF-(1,25377) -8.56687099E-02                     1_GWF-(1,9691)
        100          2         50     -0.70194847                    1_GWF-(1,23037)      0.12246980                     1_GWF-(1,9691)
        101          3          1      0.40504876                    1_GWF-(1,26674) -6.55456111E-02                     1_GWF-(1,9691)
        102          3          2      0.52676184                    1_GWF-(1,22782)      0.13275821                     1_GWF-(1,9691)
        103          3          3      0.65279991                    1_GWF-(1,26217)     -0.11380313                     1_GWF-(1,9691)
        104          3          4      0.67407368                    1_GWF-(1,26218)      0.10543961                     1_GWF-(1,9691)
        105          3          5      0.40806890                    1_GWF-(1,26422)     -0.10069576                     1_GWF-(1,9691)
        106          3          6     -0.32295177                    1_GWF-(1,26217)      0.11599083                     1_GWF-(1,9691)
        107          3          7      0.41217594                    1_GWF-(1,26194) -8.88899939E-02                     1_GWF-(1,9691)
        108          3          8      0.30495996                    1_GWF-(1,26407)  8.45041420E-02                     1_GWF-(1,9691)
        109          3          9      0.42090213                    1_GWF-(1,13206) -7.13875359E-02                     1_GWF-(1,9691)
        110          3         10      0.41822595                    1_GWF-(1,13192)  7.51151655E-02                     1_GWF-(1,9691)
        111          3         11     -0.43586549                    1_GWF-(1,26543) -5.56826918E-02                     1_GWF-(1,9691)
        112          3         12      0.55390082                    1_GWF-(1,26648)  5.48866098E-02                     1_GWF-(1,9691)
        113          3         13     -0.41845384                    1_GWF-(1,26623) -4.15968074E-02                     1_GWF-(1,9691)
        114          3         14     -0.42185461                    1_GWF-(1,26649)  4.08565518E-02                     1_GWF-(1,9691)
        115          3         15     -0.60691384                    1_GWF-(1,26648)  2.77619962E-02                     1_GWF-(1,9692)
        116          3         16     -0.53304909                    1_GWF-(1,26665)  2.79090115E-02                     1_GWF-(1,9691)
        117          3         17     -0.42385180                    1_GWF-(1,26674)  1.60153045E-02                     1_GWF-(1,9692)
        118          3         18      0.29775458                    1_GWF-(1,26350)  1.30712713E-02                     1_GWF-(1,9691)
        119          3         19      0.41589490                    1_GWF-(1,26665)  7.05841758E-03                     1_GWF-(1,9692)
        120          3         20      0.40065269                    1_GWF-(1,26674)  5.65301423E-03                     1_GWF-(1,9691)
        121          3         21      0.23892576                    1_GWF-(1,26422) -7.83845978E-03                    1_GWF-(1,16201)
        122          3         22      0.41519396                    1_GWF-(1,26350)  6.66737537E-03                     1_GWF-(1,9692)
        123          3         23      0.42502560                    1_GWF-(1,26422)  1.01669565E-02                     1_GWF-(1,9691)
        124          3         24      0.52488745                    1_GWF-(1,26420)  8.88507362E-03                     1_GWF-(1,9692)
        125          3         25      0.47181646                    1_GWF-(1,26422)  9.79681806E-03                     1_GWF-(1,9691)
        126          3         26      0.49807716                    1_GWF-(1,26420)  5.71614518E-03                     1_GWF-(1,9692)
        127          3         27      0.43421574                    1_GWF-(1,26487) -5.58377228E-03                    1_GWF-(1,16201)
        128          3         28     -0.41977945                    1_GWF-(1,26487)  7.63242799E-03                     1_GWF-(1,9691)
        129          3         29     -0.55205327                    1_GWF-(1,26486)  6.60922440E-03                     1_GWF-(1,9692)
        130          3         30     -0.41016384                    1_GWF-(1,26487)  6.59324775E-03                     1_GWF-(1,9691)
        131          3         31     -0.37506252                    1_GWF-(1,26486)  4.05238893E-03                    1_GWF-(1,11145)
        132          3         32     -0.34719470                    1_GWF-(1,26588)  3.75532833E-03                    1_GWF-(1,16201)
        133          3         33     -0.38446430                    1_GWF-(1,26543)  4.80731056E-03                     1_GWF-(1,9691)
        134          3         34     -0.45061736                    1_GWF-(1,26588)  4.96215802E-03                    1_GWF-(1,11145)
        135          3         35      0.34149197                    1_GWF-(1,26588)  5.22656982E-03                    1_GWF-(1,16201)
        136          3         36      0.27816766                    1_GWF-(1,26665)  4.73314676E-03                    1_GWF-(1,11147)
        137          3         37      0.36048891                    1_GWF-(1,26649)  4.74380682E-03                    1_GWF-(1,11048)
        138          3         38      0.45665070                    1_GWF-(1,26622)  4.37103213E-03                    1_GWF-(1,16201)
        139          3         39     -0.38235062                    1_GWF-(1,26622)  3.90281877E-03                    1_GWF-(1,11133)
        140          3         40     -0.31114589                    1_GWF-(1,26623) -3.95913321E-03                    1_GWF-(1,11149)
        141          3         41     -0.23987209                    1_GWF-(1,26622)  4.18264585E-03                    1_GWF-(1,16201)
        142          3         42     -0.35264954                    1_GWF-(1,26665)  3.38006301E-03                    1_GWF-(1,11152)
        143          3         43     -0.31606105                    1_GWF-(1,26666)  3.66283190E-03                    1_GWF-(1,11135)
        144          3         44     -0.28108122                    1_GWF-(1,26665)  3.62185188E-03                    1_GWF-(1,16201)
        145          3         45      0.28738392                    1_GWF-(1,26665)  4.30364792E-03                    1_GWF-(1,11053)
        146          3         46      0.23475243                    1_GWF-(1,26666) -2.86785276E-03                    1_GWF-(1,11059)
        147          3         47     -0.17418733                    1_GWF-(1,26543) -3.10351791E-03                    1_GWF-(1,11054)
        148          3         48     -0.16911418                    1_GWF-(1,26542)  2.91659537E-03                    1_GWF-(1,10966)
        149          3         49     -0.20042816                    1_GWF-(1,26623)  3.04155350E-03                    1_GWF-(1,11156)
        150          3         50     -0.16862689                    1_GWF-(1,26586) -2.25220513E-03                    1_GWF-(1,10961)
        151          4          1     -0.31034851                    1_GWF-(1,11428) -8.39632246E-03                    1_GWF-(1,10745)
        152          4          2     -0.25817530                    1_GWF-(1,11421) -6.12812164E-03                    1_GWF-(1,15063)
        153          4          3     -0.20092999                    1_GWF-(1,11401)  3.56305838E-03                    1_GWF-(1,15063)
        154          4          4     -0.17800086                    1_GWF-(1,11393)  2.72143525E-03                    1_GWF-(1,15062)
        155          4          5     -0.14724560                    1_GWF-(1,11403)  2.70754964E-03                    1_GWF-(1,15067)
        156          4          6 -9.72152045E-02                    1_GWF-(1,11318)  2.69437726E-03                    1_GWF-(1,15063)
        157          4          7      0.11221700                    1_GWF-(1,11403)  2.88440611E-03                    1_GWF-(1,10651)
        158          4          8      0.10594273                    1_GWF-(1,11318) -2.65123408E-03                    1_GWF-(1,15062)
        159          4          9      0.11444025                    1_GWF-(1,11456) -2.80131600E-03                    1_GWF-(1,15067)
        160          4         10     -0.14036567                    1_GWF-(1,26665) -2.30647644E-03                    1_GWF-(1,15058)
        161          4         11      0.12708793                    1_GWF-(1,26665) -2.02816551E-03                    1_GWF-(1,15062)
        162          4         12 -7.25138264E-02                    1_GWF-(1,26665) -2.36133730E-03                    1_GWF-(1,15067)
        163          4         13 -8.04948421E-02                    1_GWF-(1,26622) -1.84218838E-03                    1_GWF-(1,15058)
        164          4         14  8.03059940E-02                    1_GWF-(1,26622) -8.79004791E-04                    1_GWF-(1,15070)
        165          4         15  6.00583731E-02                    1_GWF-(1,26649)  9.70857175E-04                    1_GWF-(1,15058)
        166          4         16  5.21485653E-02                    1_GWF-(1,26622) -1.24533273E-03                    1_GWF-(1,15058)
        167          4         17 -4.33629916E-02                    1_GWF-(1,26218) -1.23685759E-03                    1_GWF-(1,15079)
        168          4         18 -5.02934061E-02                    1_GWF-(1,26588)  1.31675321E-03                    1_GWF-(1,15069)
        169          4         19 -6.04863984E-02                    1_GWF-(1,26543) -1.25194663E-03                    1_GWF-(1,15058)
        170          4         20 -7.70213867E-02                    1_GWF-(1,26588)  1.06822195E-03                    1_GWF-(1,10961)
        171          4         21 -6.04536662E-02                    1_GWF-(1,26543)  8.93278748E-04                    1_GWF-(1,15069)
        172          4         22 -4.14942167E-02                    1_GWF-(1,26588) -9.99002297E-04                    1_GWF-(1,10961)
        173          4         23 -3.91125429E-02                    1_GWF-(1,26486) -1.13345963E-03                    1_GWF-(1,15079)
        174          4         24 -4.67252406E-02                    1_GWF-(1,26487) -1.08878723E-03                    1_GWF-(1,15078)
        175          4         25 -5.81834748E-02                    1_GWF-(1,26486)  7.63663488E-04                    1_GWF-(1,10959)
        176          4         26 -5.74011394E-02                    1_GWF-(1,26487) -1.10360286E-03                    1_GWF-(1,15079)
        177          4         27 -5.18568361E-02                    1_GWF-(1,26420) -1.43546607E-03                    1_GWF-(1,15078)
        178          4         28 -5.29869399E-02                    1_GWF-(1,26422)  1.45269961E-03                    1_GWF-(1,15078)
        179          4         29 -5.38627289E-02                    1_GWF-(1,26350)  1.22295682E-03                    1_GWF-(1,15083)
        180          4         30 -4.74780349E-02                    1_GWF-(1,26422)  8.67634284E-04                     1_GWF-(1,5697)
        181          4         31  5.79234042E-02                    1_GWF-(1,26422) -1.06845198E-03                    1_GWF-(1,10651)
        182          4         32  5.19397900E-02                    1_GWF-(1,26350)  1.01333733E-03                    1_GWF-(1,15083)
        183          4         33  4.39137811E-02                    1_GWF-(1,26422) -8.74668177E-04                    1_GWF-(1,15083)
        184          4         34  3.47577325E-02                    1_GWF-(1,26350) -7.83814559E-04                    1_GWF-(1,11145)
        185          4         35  2.67686126E-02                    1_GWF-(1,26422)  7.13107138E-04                    1_GWF-(1,11064)
        186          4         36 -2.56109013E-02                    1_GWF-(1,11365)  7.65203756E-04                     1_GWF-(1,9691)
        187          4         37 -1.69489933E-02                    1_GWF-(1,11366)  9.37680465E-04                    1_GWF-(1,10651)
        188          4         38  2.95998245E-02                    1_GWF-(1,11454)  1.28051575E-03                     1_GWF-(1,9691)
        189          4         39 -1.77539601E-02                    1_GWF-(1,26217)  1.30209795E-03                     1_GWF-(1,9692)
        190          4         40 -1.93750195E-02                    1_GWF-(1,11380)  2.01988713E-03                     1_GWF-(1,9691)
        191          4         41 -1.43605062E-02                    1_GWF-(1,13539)  1.90693204E-03                     1_GWF-(1,9692)
        192          4         42 -1.25025797E-02                    1_GWF-(1,13473)  2.68541810E-03                     1_GWF-(1,9691)
        193          4         43 -1.42065215E-02                    1_GWF-(1,11369) -2.51716208E-03                     1_GWF-(1,9691)
        194          4         44  1.18253882E-02                    1_GWF-(1,11453)  2.95507300E-03                     1_GWF-(1,9691)
        195          4         45  1.17388768E-02                    1_GWF-(1,26218) -2.82284445E-03                     1_GWF-(1,9691)
        196          4         46  7.68068995E-03                    1_GWF-(1,26217)  3.33115509E-03                     1_GWF-(1,9691)
        197          4         47  7.65291224E-03                    1_GWF-(1,11701) -2.88579743E-03                     1_GWF-(1,9691)
        198          4         48  6.62520547E-03                    1_GWF-(1,11454)  3.37434832E-03                     1_GWF-(1,9691)
        199          4         49  7.11319292E-03                    1_GWF-(1,11381) -2.79777977E-03                     1_GWF-(1,9691)
        200          4         50  9.01188752E-03                    1_GWF-(1,11458)  2.95665532E-03                     1_GWF-(1,9691)
        201          5          1 -5.65095102E-02                    1_GWF-(1,11378)  1.14680614E-03                     1_GWF-(1,9692)
        202          5          2 -3.50896295E-02                    1_GWF-(1,11369)  3.15347584E-03                     1_GWF-(1,9691)
        203          5          3 -2.05045181E-02                    1_GWF-(1,11454) -3.26185249E-03                     1_GWF-(1,9691)
        204          5          4  1.98500292E-02                    1_GWF-(1,11367)  2.88095185E-03                     1_GWF-(1,9691)
        205          5          5 -2.23647941E-02                    1_GWF-(1,11373) -2.49788805E-03                     1_GWF-(1,9691)
        206          5          6  1.89092316E-02                    1_GWF-(1,11373)  2.68902528E-03                     1_GWF-(1,9691)
        207          5          7  2.68277430E-02                    1_GWF-(1,11378) -1.90591164E-03                     1_GWF-(1,9691)
        208          5          8  1.91683196E-02                    1_GWF-(1,11368)  1.73772706E-03                     1_GWF-(1,9691)
        209          5          9 -1.52196145E-02                    1_GWF-(1,11368) -1.39515628E-03                     1_GWF-(1,9691)
        210          5         10 -1.66882663E-02                    1_GWF-(1,11451)  1.35803651E-03                     1_GWF-(1,9691)
        211          5         11 -2.31784113E-02                    1_GWF-(1,11378)  7.68625609E-04                     1_GWF-(1,9692)
        212          5         12 -1.81082368E-02                    1_GWF-(1,11368)  7.50244169E-04                     1_GWF-(1,9691)
        213          5         13 -1.55248904E-02                    1_GWF-(1,11451)  4.92846776E-04                    1_GWF-(1,10651)
        214          5         14  1.43769814E-02                    1_GWF-(1,11451)  4.33061859E-04                     1_GWF-(1,9691)
        215          5         15  1.46987413E-02                    1_GWF-(1,11452)  3.18289456E-04                    1_GWF-(1,10651)
        216          5         16  1.13554037E-02                    1_GWF-(1,11368)  2.23201277E-04                    1_GWF-(1,10652)
        217          5         17 -9.64102083E-03                    1_GWF-(1,26487)  1.86216885E-04                    1_GWF-(1,10651)
        218          5         18 -1.18582643E-02                    1_GWF-(1,26486)  1.59950732E-04                    1_GWF-(1,11352)
        219          5         19 -9.86692992E-03                    1_GWF-(1,26588) -3.73719716E-04                    1_GWF-(1,10651)
        220          5         20 -8.94736594E-03                    1_GWF-(1,11415) -3.04602528E-04                    1_GWF-(1,10652)
        221          5         21 -8.69771090E-03                    1_GWF-(1,11454) -3.46310190E-04                    1_GWF-(1,10651)
        222          5         22 -8.72297035E-03                    1_GWF-(1,11452) -1.58749070E-04                    1_GWF-(1,10652)
        223          5         23 -7.61645281E-03                    1_GWF-(1,11415)  1.04228463E-04                     1_GWF-(1,9692)
        224          5         24  8.06795275E-03                    1_GWF-(1,26422)  1.43175296E-04                     1_GWF-(1,9691)
        225          5         25  8.33398256E-03                    1_GWF-(1,26350)  1.16373904E-04                     1_GWF-(1,9692)
        226          5         26  8.21474079E-03                    1_GWF-(1,26422)  1.54427033E-04                     1_GWF-(1,9691)
        227          5         27  6.36734224E-03                    1_GWF-(1,26544)  1.67942971E-04                    1_GWF-(1,10651)
        228          5         28  6.08791550E-03                    1_GWF-(1,26486) -9.68080141E-05                    1_GWF-(1,10653)
        229          5         29  6.42610454E-03                    1_GWF-(1,26622)  8.55411595E-05                     1_GWF-(1,9691)
        230          5         30  6.10043894E-03                    1_GWF-(1,26649) -1.21958479E-04                    1_GWF-(1,10652)
        231          5         31  4.64631962E-03                    1_GWF-(1,26422) -1.64656769E-04                    1_GWF-(1,10651)
        232          5         32 -4.96325805E-03                    1_GWF-(1,26422) -1.09156108E-04                    1_GWF-(1,10632)
        233          5         33 -4.54321473E-03                    1_GWF-(1,26350)  1.06487702E-04                    1_GWF-(1,11352)
        234          5         34  4.28108654E-03                    1_GWF-(1,26588)  8.81717652E-05                    1_GWF-(1,10653)
        235          5         35 -6.10725809E-03                    1_GWF-(1,26588) -7.20149669E-05                    1_GWF-(1,11351)
        236          5         36  6.15717827E-03                    1_GWF-(1,26588)  7.86811465E-05                    1_GWF-(1,11352)
        237          5         37 -6.66592080E-03                    1_GWF-(1,26588)  7.74628082E-05                    1_GWF-(1,11351)
        238          5         38 -4.65141498E-03                    1_GWF-(1,26589) -9.35894268E-05                    1_GWF-(1,10650)
        239          5         39 -4.85752733E-03                    1_GWF-(1,26588)  8.47763078E-05                    1_GWF-(1,11352)
        240          5         40 -6.08193236E-03                    1_GWF-(1,26665)  8.73195131E-05                    1_GWF-(1,11351)
        241          5         41  6.66292085E-03                    1_GWF-(1,26665)  9.98285283E-05                    1_GWF-(1,10652)
        242          5         42 -6.11897631E-03                    1_GWF-(1,26665)  1.47023264E-04                    1_GWF-(1,10651)
        243          5         43  5.44765239E-03                    1_GWF-(1,26665)  8.86015519E-05                    1_GWF-(1,10652)
        244          5         44 -3.26676399E-03                    1_GWF-(1,26674) -7.02092833E-05                    1_GWF-(1,11351)
        245          5         45  2.86386513E-03                    1_GWF-(1,26217)  8.10263207E-05                    1_GWF-(1,10651)
        246          5         46  3.05258556E-03                    1_GWF-(1,11305)  7.54277472E-05                    1_GWF-(1,10652)
        247          5         47  2.66214995E-03                    1_GWF-(1,26217) -7.47439707E-05                    1_GWF-(1,11351)
        248          5         48  2.89288065E-03                    1_GWF-(1,26218) -9.93939348E-05                    1_GWF-(1,10651)
        249          5         49  2.73895839E-03                    1_GWF-(1,26217)  1.29720863E-04                    1_GWF-(1,10651)
        250          5         50 -2.95949592E-03                     1_GWF-(1,8033)  1.14389699E-04                    1_GWF-(1,10652)
        251          6          1 -5.83306535E-03                    1_GWF-(1,11936)  9.57177953E-05                    1_GWF-(1,10651)
        252          6          2 -2.24428896E-03                    1_GWF-(1,11436) -1.02727216E-04                    1_GWF-(1,10651)
        253          6          3 -2.76250741E-03                    1_GWF-(1,26218)  1.13823244E-04                    1_GWF-(1,10651)
        254          6          4 -2.58973316E-03                    1_GWF-(1,26217) -6.73437975E-05                    1_GWF-(1,10651)
        255          6          5 -2.67771963E-03                    1_GWF-(1,26218)  8.01935619E-05                    1_GWF-(1,10651)
        256          6          6 -2.34539564E-03                    1_GWF-(1,26217)  5.10593598E-05                    1_GWF-(1,10652)
        257          6          7  1.96651619E-03                    1_GWF-(1,11316)  4.77976236E-05                    1_GWF-(1,10651)
        258          6          8 -2.32607748E-03                    1_GWF-(1,26665)  4.17849841E-05                    1_GWF-(1,10651)
        259          6          9 -2.53997518E-03                    1_GWF-(1,26666)  4.94480555E-05                    1_GWF-(1,10652)
        260          6         10 -2.83099763E-03                    1_GWF-(1,26665)  3.95624446E-05                    1_GWF-(1,10651)
        261          6         11  2.28147747E-03                    1_GWF-(1,26665) -4.86054484E-05                    1_GWF-(1,10651)
        262          6         12 -1.38382000E-03                    1_GWF-(1,26665) -2.76031692E-05                    1_GWF-(1,10652)
        263          6         13  1.41453660E-03                    1_GWF-(1,26589)  1.80910006E-05                    1_GWF-(1,15188)
        264          6         14  2.15758116E-03                    1_GWF-(1,26588) -3.83694609E-05                    1_GWF-(1,10651)
        265          6         15  1.95164435E-03                    1_GWF-(1,26543) -2.64655689E-05                    1_GWF-(1,10632)
        266          6         16  2.21074124E-03                    1_GWF-(1,26588)  1.82513027E-05                    1_GWF-(1,10966)
        267          6         17  1.31206546E-03                    1_GWF-(1,26543) -2.17149370E-05                    1_GWF-(1,10966)
        268          6         18 -1.11377051E-03                    1_GWF-(1,26422) -3.15453956E-05                    1_GWF-(1,10652)
        269          6         19  1.19492410E-03                    1_GWF-(1,26422) -4.99504924E-05                    1_GWF-(1,10651)
        270          6         20 -1.16051604E-03                    1_GWF-(1,26422) -3.39590116E-05                    1_GWF-(1,10652)
        271          6         21 -1.18586320E-03                    1_GWF-(1,26649) -3.75111337E-05                    1_GWF-(1,10651)
        272          6         22 -1.51437535E-03                    1_GWF-(1,26622)  1.39635062E-05                    1_GWF-(1,10864)
        273          6         23 -1.58857175E-03                    1_GWF-(1,26649)  3.08086213E-05                    1_GWF-(1,10651)
        274          6         24 -1.48622638E-03                    1_GWF-(1,26544) -5.04458129E-05                    1_GWF-(1,10651)
        275          6         25 -1.61033389E-03                    1_GWF-(1,26486) -3.67757941E-05                    1_GWF-(1,10652)
        276          6         26 -1.57827660E-03                    1_GWF-(1,26350) -2.51027785E-05                    1_GWF-(1,10651)
        277          6         27 -1.43840898E-03                    1_GWF-(1,26422) -1.75657848E-05                    1_GWF-(1,10654)
        278          6         28  1.13222331E-03                    1_GWF-(1,26486) -1.87276892E-05                    1_GWF-(1,10652)
        279          6         29  1.13668999E-03                    1_GWF-(1,26544) -2.97224551E-05                    1_GWF-(1,10651)
        280          6         30  1.41601227E-03                    1_GWF-(1,26486) -2.79818978E-05                    1_GWF-(1,10652)
        281          6         31  1.25722957E-03                    1_GWF-(1,26544) -4.60537934E-05                    1_GWF-(1,10651)
        282          6         32  1.19757641E-03                    1_GWF-(1,26486)  2.05703579E-05                    1_GWF-(1,10653)
        283          6         33  9.61423369E-04                    1_GWF-(1,26487)  1.72700697E-05                    1_GWF-(1,10651)
        284          6         34  9.02328387E-04                    1_GWF-(1,26420)  2.32640843E-05                    1_GWF-(1,10652)
        285          6         35  5.65688204E-04                    1_GWF-(1,26421)  2.38254559E-05                    1_GWF-(1,10651)
        286          6         36 -5.85967050E-04                    1_GWF-(1,11452)  2.41465868E-05                    1_GWF-(1,14801)
        287          6         37  3.84367007E-04                    1_GWF-(1,11369)  3.18904875E-05                    1_GWF-(1,10651)
        288          6         38  5.90597132E-04                    1_GWF-(1,11451)  2.50546581E-05                     1_GWF-(1,9691)
        289          6         39  5.90407269E-04                    1_GWF-(1,11368)  3.03675835E-05                    1_GWF-(1,10653)
        290          6         40  5.26700468E-04                    1_GWF-(1,11378)  4.50817880E-05                     1_GWF-(1,9691)
        291          6         41 -4.75196145E-04                    1_GWF-(1,11378) -4.66683765E-05                     1_GWF-(1,9691)
        292          6         42 -4.14842354E-04                    1_GWF-(1,13493)  6.19146343E-05                     1_GWF-(1,9691)
        293          6         43 -4.13783390E-04                    1_GWF-(1,11368) -6.67783076E-05                     1_GWF-(1,9691)
        294          6         44 -3.75283514E-04                    1_GWF-(1,11378)  8.39477424E-05                     1_GWF-(1,9691)
        295          6         45 -3.69176623E-04                    1_GWF-(1,11373) -8.74748762E-05                     1_GWF-(1,9691)
        296          6         46  4.42753989E-04                    1_GWF-(1,11373)  1.08250016E-04                     1_GWF-(1,9691)
        297          6         47 -4.62707111E-04                    1_GWF-(1,11369) -1.06270519E-04                     1_GWF-(1,9691)
        298          6         48  4.45041050E-04                    1_GWF-(1,11451)  1.12107615E-04                     1_GWF-(1,9691)
        299          6         49  7.04493094E-04                    1_GWF-(1,11369) -8.13780030E-05                     1_GWF-(1,9691)
        300          6         50  9.93090914E-04                    1_GWF-(1,11378)  1.09960862E-04                     1_GWF-(1,9691)
        301          7          1 -1.08487169E-03                    1_GWF-(1,11378) -8.50413495E-05                     1_GWF-(1,9691)
        302          7          2 -6.52451462E-04                    1_GWF-(1,11369)  9.99523429E-05                     1_GWF-(1,9691)
        303          7          3 -4.52931362E-04                    1_GWF-(1,11451) -9.21029202E-05                     1_GWF-(1,9691)
        304          7          4  3.58085076E-04                    1_GWF-(1,11369)  9.11255094E-05                     1_GWF-(1,9691)
        305          7          5 -4.02594435E-04                    1_GWF-(1,11373) -6.91847662E-05                     1_GWF-(1,9691)
        306          7          6  3.66810019E-04                    1_GWF-(1,11373)  6.05063337E-05                     1_GWF-(1,9691)
        307          7          7  2.72379911E-04                    1_GWF-(1,11378) -4.52029671E-05                     1_GWF-(1,9691)
        308          7          8 -2.53962451E-04                     1_GWF-(1,8100)  4.05260435E-05                     1_GWF-(1,9691)
        309          7          9  2.69410670E-04                    1_GWF-(1,11373) -2.84446926E-05                     1_GWF-(1,9691)
        310          7         10 -2.37896895E-04                    1_GWF-(1,11373)  2.51588235E-05                     1_GWF-(1,9691)
        311          7         11 -2.93511591E-04                    1_GWF-(1,11378)  1.42201074E-05                    1_GWF-(1,10653)
        312          7         12 -2.53914880E-04                    1_GWF-(1,11368)  1.08353999E-05                     1_GWF-(1,9691)
        313          7         13 -3.25266538E-04                    1_GWF-(1,26649)  6.12627703E-06                    1_GWF-(1,10651)
        314          7         14 -4.21662130E-04                    1_GWF-(1,26622)  8.21893896E-06                     1_GWF-(1,9692)
        315          7         15 -3.88536298E-04                    1_GWF-(1,26649)  1.15736496E-05                     1_GWF-(1,9691)
        316          7         16  2.83459479E-04                    1_GWF-(1,11369)  9.63284447E-06                    1_GWF-(1,10653)
        317          7         17  2.11751766E-04                    1_GWF-(1,11454)  8.25586397E-06                    1_GWF-(1,10652)
        318          7         18  2.43126345E-04                    1_GWF-(1,26588)  8.93801597E-06                    1_GWF-(1,10653)
        319          7         19 -4.09175210E-04                    1_GWF-(1,26588) -6.32123441E-06                    1_GWF-(1,10651)
        320          7         20  4.03066198E-04                    1_GWF-(1,26588)  7.19303128E-06                     1_GWF-(1,9691)
        321          7         21 -3.49086183E-04                    1_GWF-(1,26588) -7.26947127E-06                    1_GWF-(1,10654)
        322          7         22 -2.27325145E-04                    1_GWF-(1,26543) -9.73674279E-06                    1_GWF-(1,10651)
        323          7         23  2.00351126E-04                    1_GWF-(1,26486) -6.15275527E-06                    1_GWF-(1,10654)
        324          7         24 -2.84925322E-04                    1_GWF-(1,26486) -5.61771141E-06                    1_GWF-(1,10653)
        325          7         25  3.58433559E-04                    1_GWF-(1,26486)  3.02797388E-06                    1_GWF-(1,11058)
        326          7         26  3.60344575E-04                    1_GWF-(1,26487)  4.06770559E-06                    1_GWF-(1,10653)
        327          7         27  3.00835403E-04                    1_GWF-(1,26420) -5.23255810E-06                    1_GWF-(1,10653)
        328          7         28  2.11207892E-04                    1_GWF-(1,26487) -3.75132295E-06                    1_GWF-(1,10654)
        329          7         29  1.92341737E-04                    1_GWF-(1,26420) -2.55066168E-06                    1_GWF-(1,10653)
        330          7         30  1.37532295E-04                    1_GWF-(1,26421)  3.94490156E-06                     1_GWF-(1,9691)
        331          7         31 -1.73672494E-04                    1_GWF-(1,26422)  4.05399970E-06                    1_GWF-(1,10961)
        332          7         32 -1.75918454E-04                    1_GWF-(1,26350) -5.59239264E-06                    1_GWF-(1,10653)
        333          7         33 -1.62358621E-04                    1_GWF-(1,26422)  5.08416127E-06                    1_GWF-(1,10653)
        334          7         34  1.65570333E-04                    1_GWF-(1,26422)  4.13798140E-06                    1_GWF-(1,10654)
        335          7         35  1.53167179E-04                    1_GWF-(1,26350)  3.27256075E-06                    1_GWF-(1,10653)
        336          7         36  1.22923204E-04                    1_GWF-(1,26422) -3.11835334E-06                    1_GWF-(1,10653)
        337          7         37 -1.29916491E-04                    1_GWF-(1,26665) -2.18362483E-06                    1_GWF-(1,10961)
        338          7         38 -1.43393609E-04                    1_GWF-(1,26623)  1.85374780E-06                    1_GWF-(1,11053)
        339          7         39 -1.66441696E-04                    1_GWF-(1,26665) -3.07896499E-06                    1_GWF-(1,10653)
        340          7         40 -1.34974761E-04                    1_GWF-(1,26666)  2.49929540E-06                    1_GWF-(1,10653)
        341          7         41 -1.26042665E-04                    1_GWF-(1,26350)  2.66552528E-06                     1_GWF-(1,9691)
        342          7         42 -1.28579184E-04                    1_GWF-(1,26422)  2.23598984E-06                    1_GWF-(1,10966)
        343          7         43 -1.17934869E-04                    1_GWF-(1,26350)  2.12323193E-06                    1_GWF-(1,10653)
        344          7         44 -1.03921620E-04                    1_GWF-(1,26422)  2.17436754E-06                    1_GWF-(1,10654)
        345          7         45  8.17812587E-05                    1_GWF-(1,26217)  3.60428262E-06                    1_GWF-(1,10653)
        346          7         46  9.08670215E-05                    1_GWF-(1,26218) -2.84130902E-06                    1_GWF-(1,10653)
        347          7         47  9.15489696E-05                    1_GWF-(1,26217)  3.61896283E-06                    1_GWF-(1,10653)
        348          7         48  9.70215905E-05                    1_GWF-(1,26218) -3.41517589E-06                    1_GWF-(1,10653)
        349          7         49  7.69504292E-05                    1_GWF-(1,26217)  4.41634390E-06                    1_GWF-(1,10653)
        350          7         50  1.10962432E-04                    1_GWF-(1,11936) -4.36171627E-06                    1_GWF-(1,10653)
        351          8          1 -1.10913407E-04                    1_GWF-(1,11936)  4.21917549E-06                    1_GWF-(1,10653)
        352          8          2 -6.99271713E-05                    1_GWF-(1,26217)  3.22313658E-06                    1_GWF-(1,10654)
        353          8          3 -8.31224935E-05                    1_GWF-(1,26218)  3.30672112E-06                    1_GWF-(1,10653)
        354          8          4 -7.82959457E-05                    1_GWF-(1,26422) -2.12180463E-06                    1_GWF-(1,10653)
        355          8          5 -7.52688216E-05                    1_GWF-(1,26486) -1.02449943E-06                    1_GWF-(1,15063)
        356          8          6 -8.43457260E-05                    1_GWF-(1,26487)  2.42728308E-06                    1_GWF-(1,10653)
        357          8          7 -6.56354383E-05                    1_GWF-(1,26486)  2.09174233E-06                    1_GWF-(1,10654)
        358          8          8  5.88859755E-05                    1_GWF-(1,26217)  3.04176487E-06                    1_GWF-(1,10653)
        359          8          9  7.22995064E-05                    1_GWF-(1,26218)  1.56462637E-06                    1_GWF-(1,10658)
        360          8         10  6.42024121E-05                    1_GWF-(1,26217)  8.07948009E-07                    1_GWF-(1,10651)
        361          8         11  5.28521043E-05                    1_GWF-(1,26350)  7.22606841E-07                    1_GWF-(1,10966)
        362          8         12  5.14677446E-05                    1_GWF-(1,26422) -1.03624755E-06                    1_GWF-(1,10651)
        363          8         13  5.89747990E-05                    1_GWF-(1,26665) -7.88755786E-07                    1_GWF-(1,10654)
        364          8         14  6.38541985E-05                    1_GWF-(1,26622) -9.84346087E-07                    1_GWF-(1,10653)
        365          8         15  6.35154969E-05                    1_GWF-(1,26649) -6.82006229E-07                    1_GWF-(1,10651)
        366          8         16  4.75975237E-05                    1_GWF-(1,26622)  8.99954666E-07                    1_GWF-(1,10966)
        367          8         17 -4.73183695E-05                    1_GWF-(1,26350) -1.19806758E-06                    1_GWF-(1,10653)
        368          8         18 -4.14240086E-05                    1_GWF-(1,26422)  1.05451880E-06                    1_GWF-(1,10653)
        369          8         19 -5.24604424E-05                    1_GWF-(1,26622) -8.42157759E-07                    1_GWF-(1,10653)
        370          8         20 -5.13900695E-05                    1_GWF-(1,26623)  9.48684167E-07                    1_GWF-(1,10961)
        371          8         21 -4.41310692E-05                    1_GWF-(1,26622) -6.70044334E-07                    1_GWF-(1,10652)
        372          8         22 -3.65259214E-05                    1_GWF-(1,26623) -1.08460883E-06                    1_GWF-(1,10653)
        373          8         23 -3.51123027E-05                    1_GWF-(1,26588) -1.27605453E-06                    1_GWF-(1,10654)
        374          8         24 -4.51469143E-05                    1_GWF-(1,26350) -1.51654523E-06                    1_GWF-(1,10653)
        375          8         25 -4.62884827E-05                    1_GWF-(1,26422)  9.33321356E-07                    1_GWF-(1,10653)
        376          8         26  4.35701791E-05                    1_GWF-(1,26588)  5.40103498E-07                    1_GWF-(1,15219)
        377          8         27  4.10781247E-05                    1_GWF-(1,26589) -7.93052458E-07                    1_GWF-(1,10653)
        378          8         28  4.72000105E-05                    1_GWF-(1,26588)  7.50962067E-07                    1_GWF-(1,10653)
        379          8         29  3.20842422E-05                    1_GWF-(1,26665) -8.86882175E-07                    1_GWF-(1,10650)
        380          8         30  4.38613576E-05                    1_GWF-(1,26350) -6.88167333E-07                    1_GWF-(1,10654)
        381          8         31  4.73969810E-05                    1_GWF-(1,26422)  5.08628350E-07                     1_GWF-(1,9691)
        382          8         32  3.73563874E-05                    1_GWF-(1,26420) -5.62024669E-07                    1_GWF-(1,10651)
        383          8         33  3.23380986E-05                    1_GWF-(1,26421)  1.04220770E-06                    1_GWF-(1,10651)
        384          8         34  2.04836277E-05                    1_GWF-(1,26420) -9.02613689E-07                    1_GWF-(1,10653)
        385          8         35 -1.77669911E-05                    1_GWF-(1,11369)  1.12635562E-06                    1_GWF-(1,10653)
        386          8         36 -1.62722102E-05                    1_GWF-(1,11378)  8.34946418E-07                    1_GWF-(1,10654)
        387          8         37 -1.42011423E-05                    1_GWF-(1,26217)  9.40223839E-07                    1_GWF-(1,10651)
        388          8         38  1.83098099E-05                    1_GWF-(1,11451)  9.23453679E-07                     1_GWF-(1,9691)
        389          8         39  1.46748286E-05                    1_GWF-(1,11368)  1.08364001E-06                    1_GWF-(1,10653)
        390          8         40  1.36850472E-05                    1_GWF-(1,11378)  1.43811378E-06                     1_GWF-(1,9691)
        391          8         41 -1.77248549E-05                    1_GWF-(1,26623) -1.37887414E-06                     1_GWF-(1,9691)
        392          8         42 -2.37744027E-05                    1_GWF-(1,26622)  1.48621938E-06                     1_GWF-(1,9691)
        393          8         43 -2.61220342E-05                    1_GWF-(1,26623)  4.49779064E-07                     1_GWF-(1,9692)
        394          8         44 -2.54796502E-05                    1_GWF-(1,26622) -5.66696526E-07                     1_GWF-(1,9691)
        395          8         45 -1.70798445E-05                    1_GWF-(1,26649)  1.53964090E-06                     1_GWF-(1,9691)
        396          8         46 -1.58106297E-05                     1_GWF-(1,8095) -1.77567957E-06                     1_GWF-(1,9691)
        397          8         47 -1.58695001E-05                    1_GWF-(1,11454)  2.56747389E-06                     1_GWF-(1,9691)
        398          8         48 -1.71447386E-05                    1_GWF-(1,11373) -2.68307113E-06                     1_GWF-(1,9691)
        399          8         49  1.49027048E-05                    1_GWF-(1,11369)  2.47328446E-06                     1_GWF-(1,9691)
        400          8         50  2.35971422E-05                    1_GWF-(1,11378) -1.41446765E-06                     1_GWF-(1,9691)
        401          9          1  2.06959273E-05                    1_GWF-(1,26486)  1.62669364E-06                     1_GWF-(1,9691)
        402          9          2  1.91801597E-05                    1_GWF-(1,26487)  2.25418341E-07                     1_GWF-(1,5611)
        403          9          3  1.35772820E-05                    1_GWF-(1,11373) -1.80730473E-06                     1_GWF-(1,9691)
        404          9          4  1.03252298E-05                    1_GWF-(1,11378)  3.02405607E-06                     1_GWF-(1,9691)
        405          9          5 -1.44830168E-05                    1_GWF-(1,11378) -2.61953903E-06                     1_GWF-(1,9691)
        406          9          6 -8.23390241E-06                    1_GWF-(1,23373)  2.78254255E-06                     1_GWF-(1,9691)
        407          9          7  9.63312108E-06                    1_GWF-(1,11378) -2.45558208E-06                     1_GWF-(1,9691)
        408          9          8  1.33517271E-05                    1_GWF-(1,26649)  1.37816975E-06                     1_GWF-(1,9691)
        409          9          9  1.76664564E-05                    1_GWF-(1,26622)  7.45788311E-07                     1_GWF-(1,9691)
        410          9         10  1.55181011E-05                    1_GWF-(1,26649) -2.02310437E-06                     1_GWF-(1,9691)
        411          9         11  1.17984387E-05                    1_GWF-(1,26622)  2.34135823E-06                     1_GWF-(1,9691)
        412          9         12  7.01744637E-06                    1_GWF-(1,20916) -1.84465344E-06                     1_GWF-(1,9691)
        413          9         13 -6.76163722E-06                    1_GWF-(1,11454)  1.65060980E-06                     1_GWF-(1,9691)
        414          9         14 -5.13886016E-06                    1_GWF-(1,11378) -1.09788549E-06                     1_GWF-(1,9691)
        415          9         15  4.57718764E-06                    1_GWF-(1,20999)  9.12317233E-07                     1_GWF-(1,9691)
        416          9         16  8.21006490E-06                    1_GWF-(1,11369)  4.58855703E-07                     1_GWF-(1,9692)
        417          9         17 -9.38340573E-06                    1_GWF-(1,26666)  2.32369479E-07                    1_GWF-(1,10652)
        418          9         18 -1.23732874E-05                    1_GWF-(1,26665)  3.47736063E-07                     1_GWF-(1,9691)
        419          9         19  1.25643725E-05                    1_GWF-(1,26665) -5.14943061E-07                     1_GWF-(1,9691)
        420          9         20  7.86394184E-06                    1_GWF-(1,26666)  6.87060745E-07                     1_GWF-(1,9691)
        421          9         21 -7.47169359E-06                    1_GWF-(1,26420)  4.50194076E-07                     1_GWF-(1,9692)
        422          9         22  6.40777719E-06                    1_GWF-(1,26588) -3.19412969E-07                    1_GWF-(1,10651)
        423          9         23 -7.96437295E-06                    1_GWF-(1,26588) -2.04358702E-07                    1_GWF-(1,10654)
        424          9         24 -8.25159042E-06                    1_GWF-(1,26543)  1.51357429E-07                     1_GWF-(1,9692)
        425          9         25 -7.76640735E-06                    1_GWF-(1,26665)  3.10327872E-07                     1_GWF-(1,9691)
        426          9         26  5.69272434E-06                    1_GWF-(1,26588)  2.41498377E-07                     1_GWF-(1,9692)
        427          9         27 -4.67984653E-06                    1_GWF-(1,26622)  2.91330118E-07                     1_GWF-(1,9691)
        428          9         28  3.88754266E-06                    1_GWF-(1,25510)  2.57190769E-07                    1_GWF-(1,10653)
        429          9         29  4.04695478E-06                    1_GWF-(1,25507) -2.84283331E-07                    1_GWF-(1,10653)
        430          9         30  4.83851665E-06                    1_GWF-(1,26622)  1.84225159E-07                    1_GWF-(1,10653)
        431          9         31  6.69646135E-06                    1_GWF-(1,26649) -1.21234880E-07                    1_GWF-(1,10653)
        432          9         32  7.84172297E-06                    1_GWF-(1,26622)  9.07253962E-08                     1_GWF-(1,9691)
        433          9         33  7.63746582E-06                    1_GWF-(1,26649)  1.50394151E-07                    1_GWF-(1,10653)
        434          9         34  4.78888726E-06                    1_GWF-(1,26622)  1.61863177E-07                    1_GWF-(1,10654)
        435          9         35  4.01628179E-06                    1_GWF-(1,26218)  1.73649745E-07                    1_GWF-(1,10653)
        436          9         36  4.19590526E-06                    1_GWF-(1,26217) -1.72219080E-07                    1_GWF-(1,10653)
        437          9         37 -3.81221162E-06                    1_GWF-(1,26586) -7.54500373E-08                    1_GWF-(1,11197)
        438          9         38 -3.96917160E-06                    1_GWF-(1,26623) -6.16331237E-08                    1_GWF-(1,10481)
        439          9         39 -4.67467742E-06                    1_GWF-(1,26420) -9.81694491E-08                    1_GWF-(1,10653)
        440          9         40 -4.86454944E-06                    1_GWF-(1,26487)  6.93937862E-08                    1_GWF-(1,10653)
        441          9         41 -5.14091267E-06                    1_GWF-(1,26486)  6.94395803E-08                     1_GWF-(1,9691)
        442          9         42  4.88422123E-06                    1_GWF-(1,26486)  6.85283933E-08                    1_GWF-(1,10652)
        443          9         43 -4.80405042E-06                    1_GWF-(1,26486)  1.21199316E-07                    1_GWF-(1,10653)
        444          9         44  4.30739076E-06                    1_GWF-(1,26486)  1.12227142E-07                    1_GWF-(1,10658)
        445          9         45 -3.98407025E-06                    1_GWF-(1,26422)  1.43953904E-07                    1_GWF-(1,10653)
        446          9         46  4.45680935E-06                    1_GWF-(1,26422) -7.88221434E-08                    1_GWF-(1,10653)
        447          9         47  4.80733646E-06                    1_GWF-(1,26350)  5.07348470E-08                    1_GWF-(1,10651)
        448          9         48  4.65609970E-06                    1_GWF-(1,26422) -5.55268163E-08                    1_GWF-(1,11106)
        449          9         49  4.00341654E-06                    1_GWF-(1,26350) -5.05520189E-08                    1_GWF-(1,11056)
        450          9         50  3.43326876E-06                    1_GWF-(1,26422)  1.08255529E-07                    1_GWF-(1,10653)
        451         10          1 -4.22161007E-06                    1_GWF-(1,26422) -1.07540352E-07                    1_GWF-(1,10653)
        452         10          2 -4.76884475E-06                    1_GWF-(1,26350)  1.01526564E-07                    1_GWF-(1,10653)
        453         10          3 -4.75694380E-06                    1_GWF-(1,26422) -5.18109785E-08                    1_GWF-(1,11196)
        454         10          4 -4.17412605E-06                    1_GWF-(1,26350)  4.26812751E-08                    1_GWF-(1,11196)
        455         10          5 -3.16792755E-06                    1_GWF-(1,26422)  4.16593723E-08                    1_GWF-(1,10653)
        456         10          6  2.86620446E-06                    1_GWF-(1,26487)  6.23916333E-08                    1_GWF-(1,10658)
        457         10          7  2.95830001E-06                    1_GWF-(1,26420)  7.48019457E-08                    1_GWF-(1,10653)
        458         10          8  2.71592975E-06                    1_GWF-(1,26487)  4.15805878E-08                    1_GWF-(1,10629)
        459         10          9  2.78607370E-06                    1_GWF-(1,26486) -4.19573835E-08                    1_GWF-(1,11196)
        460         10         10 -2.73714287E-06                    1_GWF-(1,26486)  5.48048894E-08                    1_GWF-(1,10653)
        461         10         11  3.16107042E-06                    1_GWF-(1,26486) -6.73645478E-08                    1_GWF-(1,10653)
        462         10         12  2.24115609E-06                    1_GWF-(1,26544) -3.95934847E-08                    1_GWF-(1,11196)
        463         10         13  2.37403594E-06                    1_GWF-(1,26543)  2.68725859E-08                    1_GWF-(1,11109)
        464         10         14  2.55894654E-06                    1_GWF-(1,26588) -6.69587307E-08                    1_GWF-(1,10653)
        465         10         15 -2.06886181E-06                    1_GWF-(1,26421) -4.33803959E-08                    1_GWF-(1,10654)
        466         10         16 -1.99445801E-06                    1_GWF-(1,26420) -3.43603173E-08                    1_GWF-(1,10650)
        467         10         17 -1.49495037E-06                    1_GWF-(1,25693) -2.71289339E-08                    1_GWF-(1,11197)
        468         10         18 -1.93857191E-06                    1_GWF-(1,26622) -3.03575322E-08                    1_GWF-(1,10658)
        469         10         19 -2.14909265E-06                    1_GWF-(1,26649) -3.43334537E-08                    1_GWF-(1,10653)
        470         10         20 -2.48630307E-06                    1_GWF-(1,26622)  2.50631139E-08                    1_GWF-(1,10653)
        471         10         21 -2.09969358E-06                    1_GWF-(1,26649) -2.33586406E-08                    1_GWF-(1,11196)
        472         10         22 -1.62600345E-06                    1_GWF-(1,26622) -2.30806893E-08                    1_GWF-(1,10653)
        473         10         23 -1.99365183E-06                    1_GWF-(1,26665)  2.86163605E-08                    1_GWF-(1,10653)
        474         10         24  1.96657040E-06                    1_GWF-(1,26665) -2.80640823E-08                    1_GWF-(1,10651)
        475         10         25 -1.42659042E-06                    1_GWF-(1,26665) -2.25029298E-08                    1_GWF-(1,10652)
        476         10         26  1.12972782E-06                    1_GWF-(1,26665) -2.67710756E-08                    1_GWF-(1,11197)
        477         10         27 -9.61739842E-07                    1_GWF-(1,26218) -3.83040369E-08                    1_GWF-(1,10653)
        478         11          1  7.43216930E-07                    1_GWF-(1,26218)  2.43532154E-08                    1_GWF-(1,10653)
 --------------------------------------------------------------------------------------------------------------------------------------


 UBDSV1 SAVING     FLOW-JA-FACE ON UNIT   1020 AT TIME STEP      1, STRESS PERIOD      1
 UBDSV06 SAVING       DATA-SPDIS IN MODEL ML               PACKAGE NPF             CONNECTED TO MODEL ML               PACKAGE NPF              ON UNIT   1020 AT TIME STEP      1, STRESS PERIOD      1
 UBDSV06 SAVING              WEL IN MODEL ML               PACKAGE ML              CONNECTED TO MODEL ML               PACKAGE WEL_0            ON UNIT   1020 AT TIME STEP      1, STRESS PERIOD      1
 UBDSV06 SAVING              DRN IN MODEL ML               PACKAGE ML              CONNECTED TO MODEL ML               PACKAGE DRN_0            ON UNIT   1020 AT TIME STEP      1, STRESS PERIOD      1
 UBDSV06 SAVING              RIV IN MODEL ML               PACKAGE ML              CONNECTED TO MODEL ML               PACKAGE RIV_0            ON UNIT   1020 AT TIME STEP      1, STRESS PERIOD      1
 UBDSV06 SAVING              GHB IN MODEL ML               PACKAGE ML              CONNECTED TO MODEL ML               PACKAGE GHB_0            ON UNIT   1020 AT TIME STEP      1, STRESS PERIOD      1
 UBDSV06 SAVING              RCH IN MODEL ML               PACKAGE ML              CONNECTED TO MODEL ML               PACKAGE RCHA_0           ON UNIT   1020 AT TIME STEP      1, STRESS PERIOD      1

 HEAD WILL BE SAVED ON UNIT 1021 AT END OF TIME STEP    1, STRESS PERIOD    1


  VOLUME BUDGET FOR ENTIRE MODEL AT END OF TIME STEP    1, STRESS PERIOD   1
  ---------------------------------------------------------------------------------------------------

     CUMULATIVE VOLUME      L**3       RATES FOR THIS TIME STEP      L**3/T          PACKAGE NAME    
     ------------------                 ------------------------                     ----------------

           IN:                                      IN:
           ---                                      ---
                 WEL =           0.0000                   WEL =           0.0000     WEL_0           
                 DRN =           0.0000                   DRN =           0.0000     DRN_0           
                 RIV =           2.0590                   RIV =           1.0295     RIV_0           
                 GHB =           3.2206                   GHB =           1.6103     GHB_0           
                 RCH =           0.9916                   RCH =           0.4958     RCHA_0          

            TOTAL IN =           6.2712              TOTAL IN =           3.1356

          OUT:                                     OUT:
          ----                                     ----
                 WEL =           0.4153                   WEL =           0.2076     WEL_0           
                 DRN =           0.3240                   DRN =           0.1620     DRN_0           
                 RIV =           5.4577                   RIV =           2.7289     RIV_0           
                 GHB =       7.4118E-02                   GHB =       3.7059E-02     GHB_0           
                 RCH =           0.0000                   RCH =           0.0000     RCHA_0          

           TOTAL OUT =           6.2712             TOTAL OUT =           3.1356

            IN - OUT =      -4.5449E-06              IN - OUT =      -2.2725E-06

 PERCENT DISCREPANCY =          -0.00     PERCENT DISCREPANCY =          -0.00




         TIME SUMMARY AT END OF TIME STEP    1 IN STRESS PERIOD    1
                    SECONDS     MINUTES      HOURS       DAYS        YEARS
                    -----------------------------------------------------------
   TIME STEP LENGTH  2.0000     3.33333E-02 5.55556E-04 2.31481E-05 6.33762E-08
 STRESS PERIOD TIME  2.0000     3.33333E-02 5.55556E-04 2.31481E-05 6.33762E-08
         TOTAL TIME  2.0000     3.33333E-02 5.55556E-04 2.31481E-05 6.33762E-08


end timestep

