                                   MODFLOW 6
                U.S. GEOLOGICAL SURVEY MODULAR HYDROLOGIC MODEL
                          GROUNDWATER FLOW MODEL (GWF)
                            VERSION 6.2.2 07/30/2021

   MODFLOW 6 compiled Jul 31 2021 14:22:53 with IFORT compiler (ver. 19.10.3)

This software has been approved for release by the U.S. Geological 
Survey (USGS). Although the software has been subjected to rigorous 
review, the USGS reserves the right to update the software as needed 
pursuant to further analysis and review. No warranty, expressed or 
implied, is made by the USGS or the U.S. Government as to the 
functionality of the software and related material nor shall the 
fact of release constitute any such warranty. Furthermore, the 
software is released on condition that neither the USGS nor the U.S. 
Government shall be held liable for any damages resulting from its 
authorized or unauthorized use. Also refer to the USGS Water 
Resources Software User Rights Notice for complete use, copyright, 
and distribution information.


System command used to initiate simulation:
mf6

MODFLOW was compiled using uniform precision.

Real Variables
  KIND: 8
  TINY (smallest non-zero value):    2.225074-308
  HUGE (largest value):    1.797693+308
  PRECISION: 15
  BIT SIZE: 64

Integer Variables
  KIND: 4
  HUGE (largest value): 2147483647
  BIT SIZE: 32

Long Integer Variables
  KIND: 8
  HUGE (largest value): 9223372036854775807
  BIT SIZE: 64

Logical Variables
  KIND: 4
  BIT SIZE: 32
 

 OPENED ./ml.disv
 FILE TYPE:DISV6                  UNIT 1005   STATUS:OLD                 
 FORMAT:FORMATTED              ACCESS:SEQUENTIAL          
 ACTION:READ                


 OPENED ./ml.ic
 FILE TYPE:IC6                    UNIT 1006   STATUS:OLD                 
 FORMAT:FORMATTED              ACCESS:SEQUENTIAL          
 ACTION:READ                


 OPENED ./ml.npf
 FILE TYPE:NPF6                   UNIT 1007   STATUS:OLD                 
 FORMAT:FORMATTED              ACCESS:SEQUENTIAL          
 ACTION:READ                


 OPENED ./ml.ghb
 FILE TYPE:GHB6                   UNIT 1008   STATUS:OLD                 
 FORMAT:FORMATTED              ACCESS:SEQUENTIAL          
 ACTION:READ                


 OPENED ./ml.rcha
 FILE TYPE:RCH6                   UNIT 1009   STATUS:OLD                 
 FORMAT:FORMATTED              ACCESS:SEQUENTIAL          
 ACTION:READ                


 OPENED ./ml.obs
 FILE TYPE:OBS6                   UNIT 1010   STATUS:OLD                 
 FORMAT:FORMATTED              ACCESS:SEQUENTIAL          
 ACTION:READ                


 OPENED ./ml.oc
 FILE TYPE:OC6                    UNIT 1011   STATUS:OLD                 
 FORMAT:FORMATTED              ACCESS:SEQUENTIAL          
 ACTION:READ                


 OPENED ml.wel
 FILE TYPE:WEL6                   UNIT 1012   STATUS:OLD                 
 FORMAT:FORMATTED              ACCESS:SEQUENTIAL          
 ACTION:READ                


 OPENED ml.drn
 FILE TYPE:DRN6                   UNIT 1013   STATUS:OLD                 
 FORMAT:FORMATTED              ACCESS:SEQUENTIAL          
 ACTION:READ                


 OPENED ml.riv
 FILE TYPE:RIV6                   UNIT 1014   STATUS:OLD                 
 FORMAT:FORMATTED              ACCESS:SEQUENTIAL          
 ACTION:READ                


 DISV -- VERTEX GRID DISCRETIZATION PACKAGE, VERSION 1 : 12/23/2015 - INPUT READ FROM UNIT 1005


 # File generated by Flopy version 3.3.5 on 06/01/2022 at 18:11:31.

 PROCESSING DISCRETIZATION OPTIONS
    MODEL LENGTH UNIT IS METERS
    XORIGIN SPECIFIED AS     405575.681000000    
    YORIGIN SPECIFIED AS     6423306.54000000    
 END OF DISCRETIZATION OPTIONS

 PROCESSING DISCRETIZATION DIMENSIONS
   NLAY = 1
   NCPL = 26674
   NVERT = 27090
 END OF DISCRETIZATION DIMENSIONS

 PROCESSING GRIDDATA
 END PROCESSING GRIDDATA

 PROCESSING VERTICES
   SUCCESSFULLY READ 27090 (X,Y) COORDINATES
   MINIMUM X COORDINATE =     405575.681000000    
   MAXIMUM X COORDINATE =     413975.681000000    
   MINIMUM Y COORDINATE =     6423306.54000000    
   MAXIMUM Y COORDINATE =     6432506.54000000    
 END PROCESSING VERTICES

 PROCESSING CELL2D
   SUCCESSFULLY READ 26674 CELL2D INFORMATION ENTRIES
   MINIMUM X CELL CENTER =     405675.681000000    
   MAXIMUM X CELL CENTER =     413875.681000000    
   MINIMUM Y CELL CENTER =     6423406.54000000    
   MAXIMUM Y CELL CENTER =     6432406.54000000    
   MAXIMUM NUMBER OF CELL2D VERTICES IS 6 FOR CELL 208
 END PROCESSING VERTICES

 NPF -- NODE PROPERTY FLOW PACKAGE, VERSION 1, 3/30/2015 INPUT READ FROM UNIT 1007


 # File generated by Flopy version 3.3.5 on 06/01/2022 at 18:11:34.
 PROCESSING NPF OPTIONS
    CELL-BY-CELL FLOW INFORMATION WILL BE SAVED TO BINARY FILE WHENEVER ICBCFL IS NOT ZERO.
    SPECIFIC DISCHARGE WILL BE CALCULATED AT CELL CENTERS AND WRITTEN TO DATA-SPDIS IN BUDGET FILE WHEN REQUESTED.
 END OF NPF OPTIONS

 WEL   -- WEL PACKAGE, VERSION 8, 2/22/2014 INPUT READ FROM UNIT 1012
 # File generated by Flopy version 3.3.5 on 06/01/2022 at 18:11:34.

 PROCESSING WEL OPTIONS
    WEL BOUNDARIES HAVE NAMES IN LAST COLUMN.
    FLOWS WILL BE SAVED TO BUDGET FILE SPECIFIED IN OUTPUT CONTROL
 END OF WEL OPTIONS

 PROCESSING WEL DIMENSIONS
    MAXBOUND =       9
 END OF WEL DIMENSIONS

 DRN   -- DRN PACKAGE, VERSION 8, 2/22/2014 INPUT READ FROM UNIT 1013
 # File generated by Flopy version 3.3.5 on 06/01/2022 at 18:11:34.

 PROCESSING DRN OPTIONS
    DRN BOUNDARIES HAVE NAMES IN LAST COLUMN.
    FLOWS WILL BE SAVED TO BUDGET FILE SPECIFIED IN OUTPUT CONTROL

 OPENED ml.drn.obs
 FILE TYPE:OBS   UNIT 1016   STATUS:OLD                 
 FORMAT:FORMATTED              ACCESS:SEQUENTIAL          
 ACTION:READ                

 END OF DRN OPTIONS

 PROCESSING DRN DIMENSIONS
    MAXBOUND =     133
 END OF DRN DIMENSIONS

 RIV   -- RIV PACKAGE, VERSION 8, 2/22/2014 INPUT READ FROM UNIT 1014
 # File generated by Flopy version 3.3.5 on 06/01/2022 at 18:11:34.

 PROCESSING RIV OPTIONS
    AUXILIARY RIV VARIABLE: FID             
    RIV BOUNDARIES HAVE NAMES IN LAST COLUMN.
    FLOWS WILL BE SAVED TO BUDGET FILE SPECIFIED IN OUTPUT CONTROL
 END OF RIV OPTIONS

 PROCESSING RIV DIMENSIONS
    MAXBOUND =     794
 END OF RIV DIMENSIONS

 GHB   -- GHB PACKAGE, VERSION 8, 2/22/2014 INPUT READ FROM UNIT 1008
 # File generated by Flopy version 3.3.5 on 06/01/2022 at 18:11:34.

 PROCESSING GHB OPTIONS
    GHB BOUNDARIES HAVE NAMES IN LAST COLUMN.
    FLOWS WILL BE SAVED TO BUDGET FILE SPECIFIED IN OUTPUT CONTROL
 END OF GHB OPTIONS

 PROCESSING GHB DIMENSIONS
    MAXBOUND =     153
 END OF GHB DIMENSIONS

 RCH   -- RCH PACKAGE, VERSION 8, 2/22/2014 INPUT READ FROM UNIT 1009
 # File generated by Flopy version 3.3.5 on 06/01/2022 at 18:11:34.

 PROCESSING RCH OPTIONS
    RECHARGE INPUT WILL BE READ AS ARRAY(S).
    FLOWS WILL BE SAVED TO BUDGET FILE SPECIFIED IN OUTPUT CONTROL
 END OF RCH OPTIONS

 IC -- INITIAL CONDITIONS PACKAGE, VERSION 8, 3/28/2015 INPUT READ FROM UNIT 1006
 # File generated by Flopy version 3.3.5 on 06/01/2022 at 18:11:34.
 PROCESSING GRIDDATA

     INITIAL HEAD =   15.00000    
 END PROCESSING GRIDDATA
 PROCESSING GRIDDATA

                ICELLTYPE = 0

 OPENED ../com_ext/k.txt
 FILE TYPE:OPEN/CLOSE   UNIT 1017   STATUS:OLD                 
 FORMAT:FORMATTED              ACCESS:SEQUENTIAL          
 ACTION:READ                

 K33 not provided.  Assuming K33 = K.
 K22 not provided.  Assuming K22 = K.
 END PROCESSING GRIDDATA

The observation utility is active for "ML"
 # File generated by Flopy version 3.3.5 on 06/01/2022 at 18:11:34.

Processing observation options:

Text output number of digits of precision set to: 10
The PRINT_INPUT option has been specified.


 OBSERVATIONS READ FROM FILE "ml.obs"
 ----------------------------------------------------------------------------------------------------------------------------------------------------------------------------------------------------------------------------
 NAME                                     TYPE                                       TIME         LOCATION DATA                              OUTPUT FILENAME                                                                 
 ----------------------------------------------------------------------------------------------------------------------------------------------------------------------------------------------------------------------------
 PRG                                      CONTINUOUS  HEAD                           ALL TIMES    "1 16523"                                  sim/hds.csv                                                                     
 P8                                       CONTINUOUS  HEAD                           ALL TIMES    "1 10323"                                  sim/hds.csv                                                                     
 P24                                      CONTINUOUS  HEAD                           ALL TIMES    "1 9594"                                   sim/hds.csv                                                                     
 P25                                      CONTINUOUS  HEAD                           ALL TIMES    "1 13966"                                  sim/hds.csv                                                                     
 P32                                      CONTINUOUS  HEAD                           ALL TIMES    "1 15787"                                  sim/hds.csv                                                                     
 P33                                      CONTINUOUS  HEAD                           ALL TIMES    "1 15825"                                  sim/hds.csv                                                                     
 PF                                       CONTINUOUS  HEAD                           ALL TIMES    "1 21048"                                  sim/hds.csv                                                                     
 PH                                       CONTINUOUS  HEAD                           ALL TIMES    "1 20781"                                  sim/hds.csv                                                                     
 PZHM1                                    CONTINUOUS  HEAD                           ALL TIMES    "1 14521"                                  sim/hds.csv                                                                     
 P26                                      CONTINUOUS  HEAD                           ALL TIMES    "1 13141"                                  sim/hds.csv                                                                     
 P27                                      CONTINUOUS  HEAD                           ALL TIMES    "1 8465"                                   sim/hds.csv                                                                     
 P28                                      CONTINUOUS  HEAD                           ALL TIMES    "1 8924"                                   sim/hds.csv                                                                     
 P29                                      CONTINUOUS  HEAD                           ALL TIMES    "1 4524"                                   sim/hds.csv                                                                     
 P30                                      CONTINUOUS  HEAD                           ALL TIMES    "1 5255"                                   sim/hds.csv                                                                     
 R20                                      CONTINUOUS  HEAD                           ALL TIMES    "1 10676"                                  sim/hds.csv                                                                     
 R21                                      CONTINUOUS  HEAD                           ALL TIMES    "1 10403"                                  sim/hds.csv                                                                     
 P34                                      CONTINUOUS  HEAD                           ALL TIMES    "1 15131"                                  sim/hds.csv                                                                     
 P37                                      CONTINUOUS  HEAD                           ALL TIMES    "1 15755"                                  sim/hds.csv                                                                     
 P38                                      CONTINUOUS  HEAD                           ALL TIMES    "1 15045"                                  sim/hds.csv                                                                     
 P39                                      CONTINUOUS  HEAD                           ALL TIMES    "1 9637"                                   sim/hds.csv                                                                     
 P40                                      CONTINUOUS  HEAD                           ALL TIMES    "1 9312"                                   sim/hds.csv                                                                     
 AP1                                      CONTINUOUS  HEAD                           ALL TIMES    "1 9702"                                   sim/hds.csv                                                                     
 RCK1                                     CONTINUOUS  HEAD                           ALL TIMES    "1 15900"                                  sim/hds.csv                                                                     
 RCK2                                     CONTINUOUS  HEAD                           ALL TIMES    "1 15199"                                  sim/hds.csv                                                                     
 P23                                      CONTINUOUS  HEAD                           ALL TIMES    "1 6409"                                   sim/hds.csv                                                                     
 ----------------------------------------------------------------------------------------------------------------------------------------------------------------------------------------------------------------------------


    BINARY GRID INFORMATION WILL BE WRITTEN TO:
      UNIT NUMBER: 1019
      FILE NAME: /srv/common/ptrack/case_study/pst/ml_02/./ml.disv.grb

 OPENED /srv/common/ptrack/case_study/pst/ml_02/./ml.disv.grb
 FILE TYPE:DATA(BINARY)   UNIT 1019   STATUS:REPLACE             
 FORMAT:UNFORMATTED            ACCESS:STREAM              
 ACTION:READWRITE           

      THE LAST TIME STEP WILL BE PRINTED
      THE LAST TIME STEP WILL BE PRINTED
 # File generated by Flopy version 3.3.5 on 06/01/2022 at 18:11:34.

 PROCESSING OC OPTIONS

    BUDGET INFORMATION WILL BE WRITTEN TO:
      UNIT NUMBER: 1020
      FILE NAME: ml.cbc

 OPENED ml.cbc
 FILE TYPE:DATA(BINARY)   UNIT 1020   STATUS:REPLACE             
 FORMAT:UNFORMATTED            ACCESS:STREAM              
 ACTION:READWRITE           

    HEAD INFORMATION WILL BE WRITTEN TO:
      UNIT NUMBER: 1021
      FILE NAME: ml.hds

 OPENED ml.hds
 FILE TYPE:DATA(BINARY)   UNIT 1021   STATUS:REPLACE             
 FORMAT:UNFORMATTED            ACCESS:STREAM              
 ACTION:READWRITE           

 END OF OC OPTIONS

The observation utility is active for "DRN_0"
 # File generated by Flopy version 3.3.5 on 06/01/2022 at 18:11:34.

Processing observation options:



start timestep kper="1" kstp="1" mode="normal"


 BEGIN READING OUTPUT CONTROL FOR STRESS PERIOD 1
      THE LAST TIME STEP WILL BE SAVED
      THE LAST TIME STEP WILL BE SAVED

 END READING OUTPUT CONTROL FOR STRESS PERIOD 1

 OPENED ext/wel_spd_02_1.txt
 FILE TYPE:OPEN/CLOSE   UNIT 1023   STATUS:OLD                 
 FORMAT:FORMATTED              ACCESS:SEQUENTIAL          
 ACTION:READ                


 OPENED ext/drn_spd_02_1.txt
 FILE TYPE:OPEN/CLOSE   UNIT 1024   STATUS:OLD                 
 FORMAT:FORMATTED              ACCESS:SEQUENTIAL          
 ACTION:READ                


 OPENED ext/riv_spd_02_1.txt
 FILE TYPE:OPEN/CLOSE   UNIT 1025   STATUS:OLD                 
 FORMAT:FORMATTED              ACCESS:SEQUENTIAL          
 ACTION:READ                


 OPENED ../com_ext/ghb_spd_1.txt
 FILE TYPE:OPEN/CLOSE   UNIT 1026   STATUS:OLD                 
 FORMAT:FORMATTED              ACCESS:SEQUENTIAL          
 ACTION:READ                


 OPENED ../com_ext/rech_spd_1.txt
 FILE TYPE:OPEN/CLOSE   UNIT 1027   STATUS:OLD                 
 FORMAT:FORMATTED              ACCESS:SEQUENTIAL          
 ACTION:READ                


 SLN_1 INNER ITERATION SUMMARY
 --------------------------------------------------------------------------------------------------------------------------------------
      TOTAL      OUTER      INNER                                                            MAXIMUM                                   
  ITERATION  ITERATION  ITERATION  MAXIMUM CHANGE      MAXIMUM CHANGE MODEL-(CELLID)        RESIDUAL    MAXIMUM RESIDUAL MODEL-(CELLID)
 --------------------------------------------------------------------------------------------------------------------------------------
          1          1          1       22.589688                    1_GWF-(1,26517)      0.19506103                    1_GWF-(1,11179)
          2          1          2       37.354873                    1_GWF-(1,26516)     -0.28293038                    1_GWF-(1,11179)
          3          1          3       48.420850                    1_GWF-(1,26515)     -0.24892087                    1_GWF-(1,15975)
          4          1          4       30.936786                    1_GWF-(1,26513)      0.18929865                    1_GWF-(1,15975)
          5          1          5       24.364937                    1_GWF-(1,26647)      0.15453345                    1_GWF-(1,11202)
          6          1          6       28.538177                    1_GWF-(1,26649)     -0.16944946                    1_GWF-(1,11207)
          7          1          7       22.947422                    1_GWF-(1,26622)      0.16996306                    1_GWF-(1,10966)
          8          1          8       17.950606                    1_GWF-(1,26623)      0.14717000                    1_GWF-(1,10960)
          9          1          9       13.986747                    1_GWF-(1,26543)  7.71553452E-02                    1_GWF-(1,10960)
         10          1         10       13.641824                    1_GWF-(1,26486)  8.17962664E-02                    1_GWF-(1,10967)
         11          1         11       10.348467                    1_GWF-(1,26487)      0.11161693                    1_GWF-(1,10966)
         12          1         12       6.9777593                    1_GWF-(1,26420)  9.15458066E-02                    1_GWF-(1,10960)
         13          1         13       5.9238828                    1_GWF-(1,26422)  6.22052462E-02                    1_GWF-(1,10960)
         14          1         14       4.0934849                    1_GWF-(1,26350)  6.24988459E-02                    1_GWF-(1,10966)
         15          1         15       2.7905746                    1_GWF-(1,26218)  8.28813763E-02                    1_GWF-(1,10966)
         16          1         16      -2.7069494                    1_GWF-(1,26622)  6.75303995E-02                    1_GWF-(1,10960)
         17          1         17      -3.3254316                    1_GWF-(1,26623)  4.42812561E-02                    1_GWF-(1,11206)
         18          1         18      -3.9784374                    1_GWF-(1,26543)  5.47020388E-02                    1_GWF-(1,10967)
         19          1         19      -5.4847353                    1_GWF-(1,26588)  6.37457138E-02                    1_GWF-(1,10966)
         20          1         20      -4.3806553                    1_GWF-(1,26543)  4.54004264E-02                    1_GWF-(1,10960)
         21          1         21      -3.8958651                    1_GWF-(1,26487)  3.63243602E-02                    1_GWF-(1,14799)
         22          1         22      -4.2316898                    1_GWF-(1,26486)  4.21968315E-02                    1_GWF-(1,10966)
         23          1         23      -3.8779591                    1_GWF-(1,26487)  3.60462905E-02                    1_GWF-(1,14799)
         24          1         24       3.9349784                    1_GWF-(1,11575)  3.55028381E-02                    1_GWF-(1,14799)
         25          1         25       3.1268623                    1_GWF-(1,11707)  3.58498326E-02                    1_GWF-(1,14799)
         26          1         26       3.5619202                    1_GWF-(1,26487) -3.37776233E-02                    1_GWF-(1,11206)
         27          1         27       3.5273740                    1_GWF-(1,26420)  3.78642068E-02                    1_GWF-(1,11206)
         28          1         28       2.5951581                    1_GWF-(1,11618)  4.43378193E-02                    1_GWF-(1,14799)
         29          1         29       2.3327651                    1_GWF-(1,11706)  3.84491362E-02                    1_GWF-(1,14798)
         30          1         30      -2.2303446                    1_GWF-(1,11618)  3.45700509E-02                    1_GWF-(1,14799)
         31          1         31      -2.5410438                    1_GWF-(1,11707) -3.48047706E-02                    1_GWF-(1,11206)
         32          1         32       2.7275083                    1_GWF-(1,26422)  4.51481926E-02                    1_GWF-(1,14799)
         33          1         33      -2.6030432                    1_GWF-(1,26422)  3.89757253E-02                    1_GWF-(1,14799)
         34          1         34      -2.6432038                    1_GWF-(1,26350)  3.86217718E-02                    1_GWF-(1,14799)
         35          1         35      -2.5665761                    1_GWF-(1,26422)  3.29200717E-02                    1_GWF-(1,14799)
         36          1         36      -1.9694753                    1_GWF-(1,26544)  3.65865815E-02                    1_GWF-(1,14799)
         37          1         37      -1.5636670                    1_GWF-(1,26486)  3.68277175E-02                    1_GWF-(1,14799)
         38          1         38      -1.8072891                    1_GWF-(1,11621)  2.69505324E-02                    1_GWF-(1,14801)
         39          1         39      -1.3491295                    1_GWF-(1,26649)  3.72505781E-02                    1_GWF-(1,14799)
         40          1         40       1.9414755                    1_GWF-(1,11621) -3.45576595E-02                    1_GWF-(1,11206)
         41          1         41       1.1342035                    1_GWF-(1,11569)  3.50924553E-02                    1_GWF-(1,14799)
         42          1         42      -1.7026278                    1_GWF-(1,11622) -4.00882307E-02                    1_GWF-(1,11206)
         43          1         43       1.3114329                    1_GWF-(1,26350)  4.60789452E-02                    1_GWF-(1,14799)
         44          1         44       1.2927972                    1_GWF-(1,26217) -4.14094489E-02                    1_GWF-(1,11206)
         45          1         45      -1.6616206                    1_GWF-(1,11622)  4.30765004E-02                    1_GWF-(1,14799)
         46          1         46      0.83501690                    1_GWF-(1,11384)  5.31326583E-02                    1_GWF-(1,14801)
         47          1         47      -1.1701862                    1_GWF-(1,26217)  8.12122359E-02                    1_GWF-(1,14799)
         48          1         48      -1.3405721                    1_GWF-(1,26218) -6.74905973E-02                    1_GWF-(1,14799)
         49          1         49      -1.5689801                    1_GWF-(1,26217)      0.11127244                    1_GWF-(1,14799)
         50          1         50      -1.6970413                    1_GWF-(1,26218)      0.13360261                    1_GWF-(1,14801)
         51          2          1      -166.92095                    1_GWF-(1,26519)     -0.24120120                    1_GWF-(1,26458)
         52          2          2      -63.524422                    1_GWF-(1,26513)  5.80826729E-02                    1_GWF-(1,26458)
         53          2          3      -38.516075                    1_GWF-(1,26637)  7.82755380E-02                    1_GWF-(1,14799)
         54          2          4      -35.305664                    1_GWF-(1,26665)  6.42458212E-02                    1_GWF-(1,14801)
         55          2          5      -23.366880                    1_GWF-(1,26622)  9.65881666E-02                    1_GWF-(1,14799)
         56          2          6      -19.462666                    1_GWF-(1,26588)  8.84936610E-02                    1_GWF-(1,14801)
         57          2          7      -18.601180                    1_GWF-(1,26543)      0.14150591                    1_GWF-(1,14799)
         58          2          8      -13.403228                    1_GWF-(1,26486)      0.13883159                    1_GWF-(1,14801)
         59          2          9      -9.8425812                    1_GWF-(1,26487)      0.13842198                    1_GWF-(1,14799)
         60          2         10      -7.3239353                    1_GWF-(1,26421)  5.99526901E-02                    1_GWF-(1,14801)
         61          2         11      -7.2270616                    1_GWF-(1,26350)  2.77094593E-02                    1_GWF-(1,14801)
         62          2         12      -4.3687565                    1_GWF-(1,26217)  6.08860487E-02                    1_GWF-(1,14799)
         63          2         13      -2.5369847                    1_GWF-(1,26622)  6.62674022E-02                    1_GWF-(1,14801)
         64          2         14      -1.8329800                    1_GWF-(1,26623)  5.50390404E-02                    1_GWF-(1,14799)
         65          2         15      -1.7653866                    1_GWF-(1,26622)  2.25373233E-02                    1_GWF-(1,14801)
         66          2         16      -1.6421008                    1_GWF-(1,25728)  5.69092384E-02                    1_GWF-(1,14801)
         67          2         17       2.1532947                    1_GWF-(1,26350)      0.11500589                    1_GWF-(1,14799)
         68          2         18       1.9478669                    1_GWF-(1,26422)  9.81875233E-02                    1_GWF-(1,14801)
         69          2         19       2.0579248                    1_GWF-(1,26588)  8.94678239E-02                    1_GWF-(1,14799)
         70          2         20       1.8938509                    1_GWF-(1,26543)  1.60963455E-02                    1_GWF-(1,14801)
         71          2         21       2.0495506                    1_GWF-(1,26588)  8.79161781E-02                    1_GWF-(1,14801)
         72          2         22       2.4001961                    1_GWF-(1,26543)      0.15628986                    1_GWF-(1,14799)
         73          2         23       1.8618994                    1_GWF-(1,26544)      0.17044921                    1_GWF-(1,14801)
         74          2         24      -2.8090284                    1_GWF-(1,26487)      0.13487176                    1_GWF-(1,14799)
         75          2         25      -3.4055250                    1_GWF-(1,26486)  2.25068715E-02                    1_GWF-(1,14799)
         76          2         26      -3.6456780                    1_GWF-(1,26487)      0.15296838                    1_GWF-(1,14801)
         77          2         27      -2.5417423                    1_GWF-(1,26420)      0.27682760                    1_GWF-(1,14799)
         78          2         28       1.7483966                    1_GWF-(1,26217)      0.23003657                    1_GWF-(1,14801)
         79          2         29      -1.5555237                    1_GWF-(1,26327)      0.24125251                    1_GWF-(1,14799)
         80          2         30       1.5297698                    1_GWF-(1,26420)      0.19609275                    1_GWF-(1,14801)
         81          2         31      -1.1803860                    1_GWF-(1,26674)      0.18416101                    1_GWF-(1,14799)
         82          2         32      -1.0907791                    1_GWF-(1,26422)      0.15153017                    1_GWF-(1,14801)
         83          2         33      -1.1225401                    1_GWF-(1,26350)      0.12166578                    1_GWF-(1,14800)
         84          2         34      0.93112827                    1_GWF-(1,26350)      0.10759247                    1_GWF-(1,14801)
         85          2         35       1.3245531                    1_GWF-(1,26422)  7.63499787E-02                    1_GWF-(1,14800)
         86          2         36      0.90295794                    1_GWF-(1,26218)  5.43546877E-02                    1_GWF-(1,14801)
         87          2         37     -0.71565048                    1_GWF-(1,26350)  3.19906054E-02                    1_GWF-(1,14800)
         88          2         38      0.71612030                    1_GWF-(1,26350)  5.35397938E-02                    1_GWF-(1,14799)
         89          2         39      0.89903896                    1_GWF-(1,26422)  6.47749731E-02                    1_GWF-(1,14798)
         90          2         40     -0.93879296                    1_GWF-(1,26486)      0.13098012                    1_GWF-(1,14799)
         91          2         41      -1.0031611                    1_GWF-(1,26420)     -0.13403648                    1_GWF-(1,14799)
         92          2         42     -0.89516877                    1_GWF-(1,26421)      0.18140124                    1_GWF-(1,14799)
         93          2         43      0.98383493                    1_GWF-(1,26421)      0.14961161                    1_GWF-(1,14801)
         94          2         44     -0.75288000                    1_GWF-(1,26218)      0.15362673                    1_GWF-(1,14799)
         95          2         45      -1.0491408                    1_GWF-(1,26420)      0.12164112                    1_GWF-(1,14801)
         96          2         46      0.71038094                    1_GWF-(1,26217)  9.02823583E-02                    1_GWF-(1,14800)
         97          2         47     -0.71277585                    1_GWF-(1,26663)  8.93359314E-02                    1_GWF-(1,14801)
         98          2         48     -0.59824406                    1_GWF-(1,26218)  6.88635053E-02                    1_GWF-(1,14800)
         99          2         49     -0.65642613                    1_GWF-(1,22783)  7.70515078E-02                    1_GWF-(1,14801)
        100          2         50     -0.52965813                    1_GWF-(1,26604)  7.13088420E-02                    1_GWF-(1,14800)
        101          3          1     -0.31495504                    1_GWF-(1,22768)  4.41353364E-02                    1_GWF-(1,14801)
        102          3          2      0.52190746                    1_GWF-(1,22783)  8.91543355E-02                    1_GWF-(1,14800)
        103          3          3      0.51977968                    1_GWF-(1,26623)      0.11488183                    1_GWF-(1,14801)
        104          3          4      0.52113891                    1_GWF-(1,26649)  7.68208623E-02                    1_GWF-(1,14800)
        105          3          5      0.48715276                    1_GWF-(1,26421)      0.11892365                    1_GWF-(1,14801)
        106          3          6      0.41016048                    1_GWF-(1,26194)     -0.13705174                    1_GWF-(1,14801)
        107          3          7     -0.50607973                    1_GWF-(1,26350)      0.12869371                    1_GWF-(1,14801)
        108          3          8     -0.63383195                    1_GWF-(1,26421)      0.10790043                    1_GWF-(1,14800)
        109          3          9      0.59430524                    1_GWF-(1,26422)      0.13098958                    1_GWF-(1,14801)
        110          3         10      0.62538968                    1_GWF-(1,26350)  8.58843066E-02                    1_GWF-(1,14800)
        111          3         11      0.48242163                    1_GWF-(1,26486)  6.09265304E-02                    1_GWF-(1,14801)
        112          3         12     -0.61253950                    1_GWF-(1,26422)  3.44651818E-02                    1_GWF-(1,14800)
        113          3         13      0.41254797                    1_GWF-(1,26422)  3.20998371E-02                    1_GWF-(1,10966)
        114          3         14      0.42465822                    1_GWF-(1,26350)  4.18870416E-02                    1_GWF-(1,14799)
        115          3         15     -0.52853953                    1_GWF-(1,26350)  3.90764257E-02                    1_GWF-(1,10966)
        116          3         16     -0.54767789                    1_GWF-(1,26422)  6.87330879E-02                    1_GWF-(1,14799)
        117          3         17      0.45077406                    1_GWF-(1,26422)  5.03609524E-02                    1_GWF-(1,14800)
        118          3         18      0.47133910                    1_GWF-(1,26350)  6.87103200E-02                    1_GWF-(1,14801)
        119          3         19      0.43457509                    1_GWF-(1,26421)  7.77034228E-02                    1_GWF-(1,14800)
        120          3         20      0.45902162                    1_GWF-(1,26659)  8.48951714E-02                    1_GWF-(1,14801)
        121          3         21     -0.48695117                    1_GWF-(1,26420)  7.66481090E-02                    1_GWF-(1,14800)
        122          3         22     -0.43629589                    1_GWF-(1,26659)  9.54901794E-02                    1_GWF-(1,14801)
        123          3         23     -0.52353313                    1_GWF-(1,26217)  8.34356430E-02                    1_GWF-(1,14800)
        124          3         24     -0.44011441                    1_GWF-(1,26421)  6.84859280E-02                    1_GWF-(1,14801)
        125          3         25      0.72257236                    1_GWF-(1,26487) -4.32851718E-02                    1_GWF-(1,10966)
        126          3         26      0.88287159                    1_GWF-(1,26420)  2.17051904E-02                    1_GWF-(1,14798)
        127          3         27      0.78664436                    1_GWF-(1,26487)  3.43391819E-02                    1_GWF-(1,14801)
        128          3         28     -0.55947525                    1_GWF-(1,26487)  4.50325364E-02                    1_GWF-(1,14800)
        129          3         29     -0.63196659                    1_GWF-(1,26486)  5.02947378E-02                    1_GWF-(1,14801)
        130          3         30     -0.59611053                    1_GWF-(1,26544)  3.61608821E-02                    1_GWF-(1,14799)
        131          3         31     -0.54518963                    1_GWF-(1,26486) -2.71075966E-02                    1_GWF-(1,14799)
        132          3         32      0.63626890                    1_GWF-(1,26543)  2.21394270E-02                    1_GWF-(1,14801)
        133          3         33     -0.60585973                    1_GWF-(1,26543)  3.83576519E-02                    1_GWF-(1,14800)
        134          3         34     -0.58390228                    1_GWF-(1,26588)  4.47567109E-02                    1_GWF-(1,14801)
        135          3         35      0.54324908                    1_GWF-(1,26588)  4.88075570E-02                    1_GWF-(1,14799)
        136          3         36      0.44612307                    1_GWF-(1,26665) -3.59878188E-02                    1_GWF-(1,14799)
        137          3         37      0.47543187                    1_GWF-(1,26623)  2.54440057E-02                    1_GWF-(1,14799)
        138          3         38      0.62639840                    1_GWF-(1,26622) -1.92142495E-02                    1_GWF-(1,10966)
        139          3         39      0.48413388                    1_GWF-(1,26649) -3.38257798E-02                    1_GWF-(1,14799)
        140          3         40     -0.46971834                    1_GWF-(1,26649)  4.85775355E-02                    1_GWF-(1,14799)
        141          3         41     -0.45298948                    1_GWF-(1,26622) -3.49418073E-02                    1_GWF-(1,14799)
        142          3         42     -0.60008713                    1_GWF-(1,26665)  1.32433954E-02                    1_GWF-(1,10966)
        143          3         43     -0.56774093                    1_GWF-(1,26666) -2.85002293E-02                    1_GWF-(1,10966)
        144          3         44     -0.43940537                    1_GWF-(1,26665) -3.96872089E-02                    1_GWF-(1,14799)
        145          3         45      0.57488222                    1_GWF-(1,26665)  6.24525613E-02                    1_GWF-(1,14799)
        146          3         46      0.48602187                    1_GWF-(1,26666) -6.05753017E-02                    1_GWF-(1,14799)
        147          3         47     -0.32600901                    1_GWF-(1,25816)  7.60868724E-02                    1_GWF-(1,14799)
        148          3         48     -0.30065159                    1_GWF-(1,26154) -6.30604728E-02                    1_GWF-(1,14799)
        149          3         49     -0.33465392                    1_GWF-(1,26649)  9.11014009E-02                    1_GWF-(1,14799)
        150          3         50     -0.38760027                    1_GWF-(1,26637) -7.07309439E-02                    1_GWF-(1,14799)
        151          4          1     -0.20072885                    1_GWF-(1,26570)  7.80102203E-02                    1_GWF-(1,14799)
        152          4          2      0.20051459                    1_GWF-(1,26623) -7.37888572E-02                    1_GWF-(1,14799)
        153          4          3      0.21479883                    1_GWF-(1,25802)  7.72567838E-02                    1_GWF-(1,14799)
        154          4          4      0.24765667                    1_GWF-(1,25805) -6.52855866E-02                    1_GWF-(1,14799)
        155          4          5      0.21651610                    1_GWF-(1,25815)  6.39511872E-02                    1_GWF-(1,14799)
        156          4          6     -0.25797902                    1_GWF-(1,26665) -4.24317575E-02                    1_GWF-(1,14799)
        157          4          7     -0.27730395                    1_GWF-(1,26666)  3.23522103E-02                    1_GWF-(1,14799)
        158          4          8     -0.35733858                    1_GWF-(1,26665)  1.20082980E-02                    1_GWF-(1,14801)
        159          4          9      0.37613407                    1_GWF-(1,26665) -1.57313901E-02                    1_GWF-(1,14799)
        160          4         10      0.31721201                    1_GWF-(1,26666)  3.69490887E-02                    1_GWF-(1,14799)
        161          4         11      0.28613941                    1_GWF-(1,26649) -3.15882161E-02                    1_GWF-(1,14799)
        162          4         12     -0.27093625                    1_GWF-(1,26649)  1.84715172E-02                    1_GWF-(1,14799)
        163          4         13      0.27505515                    1_GWF-(1,26649)  7.59089778E-03                    1_GWF-(1,14799)
        164          4         14      0.32726865                    1_GWF-(1,26622) -2.01770578E-02                    1_GWF-(1,14799)
        165          4         15      0.24803935                    1_GWF-(1,26623)  3.05767490E-02                    1_GWF-(1,14799)
        166          4         16     -0.27644595                    1_GWF-(1,26623) -2.46300262E-02                    1_GWF-(1,14799)
        167          4         17      0.20833888                    1_GWF-(1,26588)  1.81206989E-02                    1_GWF-(1,14799)
        168          4         18     -0.26533512                    1_GWF-(1,26588)  1.36433737E-02                    1_GWF-(1,14801)
        169          4         19     -0.38290497                    1_GWF-(1,26543) -1.00946913E-02                    1_GWF-(1,14799)
        170          4         20     -0.36584423                    1_GWF-(1,26588)  1.88460924E-02                    1_GWF-(1,14799)
        171          4         21     -0.24498598                    1_GWF-(1,26543)  1.59900805E-02                    1_GWF-(1,14801)
        172          4         22      0.20460238                    1_GWF-(1,26486)  1.60871382E-02                    1_GWF-(1,14800)
        173          4         23      0.21439752                    1_GWF-(1,26487)  1.55918739E-02                    1_GWF-(1,14801)
        174          4         24      0.26281608                    1_GWF-(1,26486)  6.71322551E-03                    1_GWF-(1,14800)
        175          4         25      0.29164073                    1_GWF-(1,26487)  1.53570848E-02                    1_GWF-(1,14799)
        176          4         26      0.26019281                    1_GWF-(1,26420)  1.67263336E-02                    1_GWF-(1,14801)
        177          4         27      0.18763836                    1_GWF-(1,26487)  2.14432916E-02                    1_GWF-(1,14800)
        178          4         28      0.19998530                    1_GWF-(1,26217)  2.65495923E-02                    1_GWF-(1,14801)
        179          4         29      0.18359428                    1_GWF-(1,26218)  2.06585423E-02                    1_GWF-(1,14800)
        180          4         30      0.13637342                    1_GWF-(1,26420)  2.44766408E-02                    1_GWF-(1,14801)
        181          4         31      0.18121896                    1_GWF-(1,26486) -2.14071417E-02                    1_GWF-(1,14801)
        182          4         32      0.11191105                    1_GWF-(1,11438)  2.35906419E-02                    1_GWF-(1,14801)
        183          4         33     -0.16976815                    1_GWF-(1,26544)  1.65571931E-02                    1_GWF-(1,14800)
        184          4         34     -0.15880189                    1_GWF-(1,26486)  1.81221427E-02                    1_GWF-(1,14799)
        185          4         35     -0.18382680                    1_GWF-(1,26350) -1.05934630E-02                    1_GWF-(1,14799)
        186          4         36     -0.19634049                    1_GWF-(1,26422)  1.21416129E-02                    1_GWF-(1,14799)
        187          4         37     -0.15217673                    1_GWF-(1,26350)  6.86224238E-03                    1_GWF-(1,14798)
        188          4         38     -0.12786939                    1_GWF-(1,26422)  8.20401518E-03                    1_GWF-(1,14799)
        189          4         39     -0.11229265                    1_GWF-(1,26350)  7.95346632E-03                    1_GWF-(1,14801)
        190          4         40     -0.10844441                    1_GWF-(1,26422)  1.13049459E-02                    1_GWF-(1,14800)
        191          4         41 -9.13035872E-02                    1_GWF-(1,26350)  1.69697425E-02                    1_GWF-(1,14801)
        192          4         42  8.40336927E-02                    1_GWF-(1,26350)  1.66186376E-02                    1_GWF-(1,14800)
        193          4         43      0.13149372                    1_GWF-(1,26421)  1.86583724E-02                    1_GWF-(1,14801)
        194          4         44      0.14466223                    1_GWF-(1,26350)  1.95723329E-02                    1_GWF-(1,14800)
        195          4         45      0.11769552                    1_GWF-(1,26218)  2.23546833E-02                    1_GWF-(1,14801)
        196          4         46  9.83596777E-02                    1_GWF-(1,26420)  1.71319853E-02                    1_GWF-(1,14800)
        197          4         47  8.14948970E-02                    1_GWF-(1,26588)  1.86325551E-02                    1_GWF-(1,14801)
        198          4         48 -7.81674461E-02                    1_GWF-(1,11438)  1.43908290E-02                    1_GWF-(1,14800)
        199          4         49 -6.84944859E-02                    1_GWF-(1,26420)  1.40759025E-02                    1_GWF-(1,14801)
        200          4         50 -9.13401453E-02                    1_GWF-(1,26218)  1.08729971E-02                    1_GWF-(1,14800)
        201          5          1 -5.70004317E-02                    1_GWF-(1,11455)  5.40610656E-03                    1_GWF-(1,14801)
        202          5          2 -5.98239795E-02                    1_GWF-(1,26537)  1.47389244E-02                    1_GWF-(1,14800)
        203          5          3  5.47151936E-02                    1_GWF-(1,26218)  1.90212551E-02                    1_GWF-(1,14801)
        204          5          4 -8.66457812E-02                    1_GWF-(1,26486)  1.14855166E-02                    1_GWF-(1,14800)
        205          5          5 -7.03408425E-02                    1_GWF-(1,26544)  1.58909455E-02                    1_GWF-(1,14801)
        206          5          6 -7.62521818E-02                    1_GWF-(1,26421) -1.77506949E-02                    1_GWF-(1,14801)
        207          5          7     -0.11191720                    1_GWF-(1,26350)  1.57623328E-02                    1_GWF-(1,14801)
        208          5          8 -9.60645479E-02                    1_GWF-(1,26421)  1.22208266E-02                    1_GWF-(1,14800)
        209          5          9  6.09158622E-02                    1_GWF-(1,26588)  1.44457664E-02                    1_GWF-(1,14801)
        210          5         10  7.24274484E-02                    1_GWF-(1,26350)  1.00968808E-02                    1_GWF-(1,14800)
        211          5         11  8.26767368E-02                    1_GWF-(1,26422)  6.95365246E-03                    1_GWF-(1,14801)
        212          5         12  9.96846577E-02                    1_GWF-(1,26350)  5.17310208E-03                    1_GWF-(1,14799)
        213          5         13      0.11737750                    1_GWF-(1,26422)  6.70693098E-03                    1_GWF-(1,10966)
        214          5         14      0.10491246                    1_GWF-(1,26350)  7.15726911E-03                    1_GWF-(1,14799)
        215          5         15  9.47061994E-02                    1_GWF-(1,26422)  6.53712408E-03                    1_GWF-(1,10966)
        216          5         16  8.15328492E-02                    1_GWF-(1,26350)  9.42612077E-03                    1_GWF-(1,14799)
        217          5         17  8.20564031E-02                    1_GWF-(1,26486)  7.25167926E-03                    1_GWF-(1,14800)
        218          5         18  7.29028988E-02                    1_GWF-(1,26544)  9.37450717E-03                    1_GWF-(1,14801)
        219          5         19 -6.98313039E-02                    1_GWF-(1,26544)  9.92704787E-03                    1_GWF-(1,14800)
        220          5         20     -0.11192596                    1_GWF-(1,26486)  1.14163072E-02                    1_GWF-(1,14801)
        221          5         21 -7.64278315E-02                    1_GWF-(1,26487)  8.13386098E-03                    1_GWF-(1,14800)
        222          5         22 -8.98939113E-02                    1_GWF-(1,26589)  6.49216772E-03                    1_GWF-(1,14801)
        223          5         23     -0.14663233                    1_GWF-(1,26588)  4.64410187E-03                    1_GWF-(1,14799)
        224          5         24     -0.10921755                    1_GWF-(1,26622)  6.96446790E-03                    1_GWF-(1,14800)
        225          5         25 -7.09593038E-02                    1_GWF-(1,26649)  1.13720338E-02                    1_GWF-(1,14801)
        226          5         26  7.42475910E-02                    1_GWF-(1,26218) -9.16435638E-03                    1_GWF-(1,14801)
        227          5         27  5.05134649E-02                    1_GWF-(1,26217)  9.09841664E-03                    1_GWF-(1,14801)
        228          5         28  5.27744254E-02                    1_GWF-(1,26649) -7.09454907E-03                    1_GWF-(1,10966)
        229          5         29  7.09026312E-02                    1_GWF-(1,26622)  5.83537813E-03                    1_GWF-(1,14801)
        230          5         30  7.12257518E-02                    1_GWF-(1,26543)  4.66343859E-03                    1_GWF-(1,14799)
        231          5         31      0.10903210                    1_GWF-(1,26588)  2.68275068E-03                    1_GWF-(1,14800)
        232          5         32  9.30929743E-02                    1_GWF-(1,26543)  5.31581865E-03                    1_GWF-(1,14801)
        233          5         33  6.16025040E-02                    1_GWF-(1,26588) -5.64440794E-03                    1_GWF-(1,10966)
        234          5         34 -4.76988539E-02                    1_GWF-(1,26647)  5.62377045E-03                    1_GWF-(1,14801)
        235          5         35 -5.30821155E-02                    1_GWF-(1,26665)  7.39870975E-03                    1_GWF-(1,14799)
        236          5         36  8.00306868E-02                    1_GWF-(1,26665) -5.27945757E-03                    1_GWF-(1,14799)
        237          5         37  8.84628077E-02                    1_GWF-(1,26666)  4.07893473E-03                    1_GWF-(1,14799)
        238          5         38  8.78239439E-02                    1_GWF-(1,26665) -3.30600760E-03                    1_GWF-(1,10966)
        239          5         39 -5.97286101E-02                    1_GWF-(1,26665)  4.22997197E-03                    1_GWF-(1,14801)
        240          5         40 -5.35894865E-02                    1_GWF-(1,26666)  7.52981186E-03                    1_GWF-(1,14799)
        241          5         41 -6.91307798E-02                    1_GWF-(1,26486) -5.21957152E-03                    1_GWF-(1,14799)
        242          5         42 -7.09140799E-02                    1_GWF-(1,26487)  3.03059363E-03                    1_GWF-(1,14799)
        243          5         43  6.00310541E-02                    1_GWF-(1,26622) -3.08277393E-03                    1_GWF-(1,10966)
        244          5         44  4.65191366E-02                    1_GWF-(1,26649) -4.56512217E-03                    1_GWF-(1,14799)
        245          5         45  5.51324836E-02                    1_GWF-(1,26665)  8.21013034E-03                    1_GWF-(1,14799)
        246          5         46 -4.29707738E-02                    1_GWF-(1,25815) -8.90042963E-03                    1_GWF-(1,14799)
        247          5         47 -4.26960283E-02                    1_GWF-(1,26152)  1.05263134E-02                    1_GWF-(1,14799)
        248          5         48  4.45097217E-02                    1_GWF-(1,26218) -9.72461404E-03                    1_GWF-(1,14799)
        249          5         49 -3.49352929E-02                    1_GWF-(1,26666)  1.19137841E-02                    1_GWF-(1,14799)
        250          5         50 -3.40741288E-02                    1_GWF-(1,26217) -1.14432247E-02                    1_GWF-(1,14799)
        251          6          1 -8.97696889E-02                    1_GWF-(1,11440)  1.14982033E-02                    1_GWF-(1,14799)
        252          6          2 -6.00837476E-02                    1_GWF-(1,11424) -9.89746268E-03                    1_GWF-(1,14799)
        253          6          3  5.21966375E-02                    1_GWF-(1,11440)  1.05179519E-02                    1_GWF-(1,14799)
        254          6          4 -5.60458515E-02                    1_GWF-(1,11440) -8.84764791E-03                    1_GWF-(1,14799)
        255          6          5  3.86186557E-02                    1_GWF-(1,11413)  8.21201810E-03                    1_GWF-(1,14799)
        256          6          6  3.57425305E-02                    1_GWF-(1,11443) -5.14021879E-03                    1_GWF-(1,14799)
        257          6          7 -4.81988688E-02                    1_GWF-(1,11379)  3.30712503E-03                    1_GWF-(1,14799)
        258          6          8 -4.81456428E-02                    1_GWF-(1,26622)  1.46080873E-03                    1_GWF-(1,14799)
        259          6          9  6.06064334E-02                    1_GWF-(1,26487) -4.06734205E-03                    1_GWF-(1,14799)
        260          6         10  5.31307584E-02                    1_GWF-(1,26486)  6.22587753E-03                    1_GWF-(1,14799)
        261          6         11  3.43517308E-02                    1_GWF-(1,26487) -4.03523811E-03                    1_GWF-(1,14799)
        262          6         12  4.50610958E-02                    1_GWF-(1,11379)  1.89160201E-03                    1_GWF-(1,14800)
        263          6         13 -4.63248721E-02                    1_GWF-(1,11379)  2.01579152E-03                    1_GWF-(1,14799)
        264          6         14 -4.54470589E-02                    1_GWF-(1,26666) -3.43297202E-03                    1_GWF-(1,14799)
        265          6         15 -4.77785493E-02                    1_GWF-(1,26665)  4.88264517E-03                    1_GWF-(1,14799)
        266          6         16 -4.40694422E-02                    1_GWF-(1,11379) -3.79247145E-03                    1_GWF-(1,14799)
        267          6         17 -2.70614914E-02                    1_GWF-(1,26649)  2.85613130E-03                    1_GWF-(1,14799)
        268          6         18  4.03619089E-02                    1_GWF-(1,11379)  2.30400603E-03                    1_GWF-(1,14801)
        269          6         19 -4.22494868E-02                    1_GWF-(1,26543)  1.34269221E-03                    1_GWF-(1,14800)
        270          6         20 -5.29519702E-02                    1_GWF-(1,26588)  2.24630111E-03                    1_GWF-(1,14799)
        271          6         21  4.37816093E-02                    1_GWF-(1,11379) -2.29388883E-03                    1_GWF-(1,14799)
        272          6         22 -3.49933643E-02                    1_GWF-(1,11379)  2.42439755E-03                    1_GWF-(1,14799)
        273          6         23 -2.19012799E-02                    1_GWF-(1,26218)  3.21635601E-03                    1_GWF-(1,14801)
        274          6         24  4.48391957E-02                    1_GWF-(1,11379)  3.20272578E-03                    1_GWF-(1,14800)
        275          6         25 -4.26433352E-02                    1_GWF-(1,11379)  3.81707290E-03                    1_GWF-(1,14801)
        276          6         26  2.57930666E-02                    1_GWF-(1,26623)  2.57026674E-03                    1_GWF-(1,14800)
        277          6         27  3.87895439E-02                    1_GWF-(1,11379)  1.45890044E-03                    1_GWF-(1,14799)
        278          6         28  4.22358976E-02                    1_GWF-(1,26588)  1.43077737E-03                    1_GWF-(1,14801)
        279          6         29  2.44990112E-02                    1_GWF-(1,26589) -2.23972821E-03                    1_GWF-(1,14801)
        280          6         30  4.34821826E-02                    1_GWF-(1,11379)  3.12400718E-03                    1_GWF-(1,14801)
        281          6         31  3.54609901E-02                    1_GWF-(1,26486)  2.85140821E-03                    1_GWF-(1,14800)
        282          6         32  1.88051794E-02                    1_GWF-(1,26544)  3.03450013E-03                    1_GWF-(1,14801)
        283          6         33  3.55257883E-02                    1_GWF-(1,11379)  2.22899870E-03                    1_GWF-(1,14800)
        284          6         34 -3.17547117E-02                    1_GWF-(1,11379)  2.43522663E-03                    1_GWF-(1,14799)
        285          6         35 -2.52429319E-02                    1_GWF-(1,26350) -1.54513020E-03                    1_GWF-(1,14799)
        286          6         36 -2.88673935E-02                    1_GWF-(1,26422)  1.94761997E-03                    1_GWF-(1,14799)
        287          6         37 -3.17083956E-02                    1_GWF-(1,11379)  1.10735532E-03                    1_GWF-(1,14798)
        288          6         38 -2.80499388E-02                    1_GWF-(1,26422)  1.21876388E-03                    1_GWF-(1,14799)
        289          6         39 -2.20610738E-02                    1_GWF-(1,26350)  1.35476948E-03                    1_GWF-(1,14801)
        290          6         40 -3.39454345E-02                    1_GWF-(1,11379)  1.80955303E-03                    1_GWF-(1,14800)
        291          6         41  2.23007346E-02                    1_GWF-(1,11379)  2.60374432E-03                    1_GWF-(1,14801)
        292          6         42  1.15360455E-02                    1_GWF-(1,26350)  2.40229008E-03                    1_GWF-(1,14800)
        293          6         43 -2.90973420E-02                    1_GWF-(1,11379)  2.74048770E-03                    1_GWF-(1,14801)
        294          6         44  2.89134761E-02                    1_GWF-(1,11379)  2.61579577E-03                    1_GWF-(1,14800)
        295          6         45  1.56895581E-02                    1_GWF-(1,26421)  2.90543883E-03                    1_GWF-(1,14801)
        296          6         46 -2.31192432E-02                    1_GWF-(1,11379)  2.23010212E-03                    1_GWF-(1,14800)
        297          6         47  3.51014002E-02                    1_GWF-(1,11379)  2.53507335E-03                    1_GWF-(1,14801)
        298          6         48 -2.00226548E-02                    1_GWF-(1,11379)  2.02565029E-03                    1_GWF-(1,14800)
        299          6         49 -1.18009848E-02                    1_GWF-(1,11379)  1.97443886E-03                    1_GWF-(1,14801)
        300          6         50  3.84077001E-02                    1_GWF-(1,11379)  1.68447562E-03                    1_GWF-(1,14800)
        301          7          1 -3.66004105E-02                    1_GWF-(1,11379)  1.87270614E-03                    1_GWF-(1,14801)
        302          7          2 -1.05136587E-02                    1_GWF-(1,26537)  1.87997791E-03                    1_GWF-(1,14800)
        303          7          3  2.22257615E-02                    1_GWF-(1,11379)  2.25690444E-03                    1_GWF-(1,14801)
        304          7          4 -3.31816081E-02                    1_GWF-(1,11379)  1.95391483E-03                    1_GWF-(1,14800)
        305          7          5  1.85210007E-02                    1_GWF-(1,11379)  2.43749463E-03                    1_GWF-(1,14801)
        306          7          6 -1.29326048E-02                    1_GWF-(1,26421)  2.13398888E-03                    1_GWF-(1,14800)
        307          7          7 -2.88152726E-02                    1_GWF-(1,11379)  2.26559733E-03                    1_GWF-(1,14801)
        308          7          8  2.40554222E-02                    1_GWF-(1,11379)  1.96426647E-03                    1_GWF-(1,14800)
        309          7          9 -9.15413063E-03                    1_GWF-(1,26350)  2.01661002E-03                    1_GWF-(1,14801)
        310          7         10 -2.40087344E-02                    1_GWF-(1,11379)  1.34572356E-03                    1_GWF-(1,14800)
        311          7         11  2.82281268E-02                    1_GWF-(1,11379)  1.05079689E-03                    1_GWF-(1,14801)
        312          7         12  1.77383242E-02                    1_GWF-(1,26350)  8.34406967E-04                    1_GWF-(1,14799)
        313          7         13  2.11768741E-02                    1_GWF-(1,26422)  9.79947203E-04                    1_GWF-(1,10966)
        314          7         14  2.53009667E-02                    1_GWF-(1,11379)  1.21367734E-03                    1_GWF-(1,14799)
        315          7         15  1.77715260E-02                    1_GWF-(1,26422)  1.01421830E-03                    1_GWF-(1,10966)
        316          7         16  1.41085520E-02                    1_GWF-(1,26350)  1.39411511E-03                    1_GWF-(1,14799)
        317          7         17  2.44649031E-02                    1_GWF-(1,11379)  1.08385357E-03                    1_GWF-(1,14800)
        318          7         18 -2.08518613E-02                    1_GWF-(1,11379)  1.44229444E-03                    1_GWF-(1,14801)
        319          7         19 -1.37007592E-02                    1_GWF-(1,26420)  1.25041715E-03                    1_GWF-(1,14800)
        320          7         20  2.22757601E-02                    1_GWF-(1,11379)  9.21987984E-04                    1_GWF-(1,14801)
        321          7         21 -2.04627754E-02                    1_GWF-(1,26486)  6.48468119E-04                    1_GWF-(1,14799)
        322          7         22 -1.69619543E-02                    1_GWF-(1,26487)  9.61587284E-04                    1_GWF-(1,14800)
        323          7         23  2.82601222E-02                    1_GWF-(1,11379)  1.62059385E-03                    1_GWF-(1,14801)
        324          7         24 -1.60768156E-02                    1_GWF-(1,11379) -1.48720799E-03                    1_GWF-(1,14801)
        325          7         25 -1.01567916E-02                    1_GWF-(1,11379)  1.70188413E-03                    1_GWF-(1,14801)
        326          7         26  2.38991891E-02                    1_GWF-(1,11379)  1.23565680E-03                    1_GWF-(1,14800)
        327          7         27 -1.44399841E-02                    1_GWF-(1,11379)  8.50419117E-04                    1_GWF-(1,14801)
        328          7         28  1.35547228E-02                    1_GWF-(1,26622)  5.21905907E-04                    1_GWF-(1,14799)
        329          7         29  1.71630202E-02                    1_GWF-(1,11379)  7.89649917E-04                    1_GWF-(1,14800)
        330          7         30  1.41332668E-02                    1_GWF-(1,26622)  1.19103322E-03                    1_GWF-(1,14801)
        331          7         31 -1.37487122E-02                    1_GWF-(1,11379) -1.11664061E-03                    1_GWF-(1,14801)
        332          7         32  1.93742216E-02                    1_GWF-(1,11379)  9.73538855E-04                    1_GWF-(1,14801)
        333          7         33 -8.00061104E-03                    1_GWF-(1,11379)  1.04212811E-03                    1_GWF-(1,14799)
        334          7         34  9.26892282E-03                    1_GWF-(1,26622) -8.90471844E-04                    1_GWF-(1,14799)
        335          7         35  1.77903572E-02                    1_GWF-(1,11379)  8.58015293E-04                    1_GWF-(1,14799)
        336          7         36  1.09748443E-02                    1_GWF-(1,26218) -3.24342365E-04                    1_GWF-(1,10966)
        337          7         37 -1.02395057E-02                    1_GWF-(1,11379)  6.43539865E-04                    1_GWF-(1,14801)
        338          7         38  1.64644216E-02                    1_GWF-(1,11379)  8.51565931E-04                    1_GWF-(1,14799)
        339          7         39 -1.06084516E-02                    1_GWF-(1,26588) -1.04504885E-03                    1_GWF-(1,14799)
        340          7         40 -7.87891464E-03                    1_GWF-(1,11379)  1.29816487E-03                    1_GWF-(1,14799)
        341          7         41  1.33824247E-02                    1_GWF-(1,11379) -7.15531620E-04                    1_GWF-(1,14799)
        342          7         42 -1.13820867E-02                    1_GWF-(1,26665)  3.21678936E-04                    1_GWF-(1,14799)
        343          7         43  8.21000077E-03                    1_GWF-(1,26665) -4.76075668E-04                    1_GWF-(1,10966)
        344          7         44  1.08303396E-02                    1_GWF-(1,11379) -7.26969123E-04                    1_GWF-(1,14799)
        345          7         45  9.56611499E-03                    1_GWF-(1,26665)  1.21594004E-03                    1_GWF-(1,14799)
        346          7         46 -7.14281549E-03                    1_GWF-(1,11379) -1.30527888E-03                    1_GWF-(1,14799)
        347          7         47  1.04192679E-02                    1_GWF-(1,11379)  1.55161850E-03                    1_GWF-(1,14799)
        348          7         48  7.74206850E-03                    1_GWF-(1,26218) -1.46660948E-03                    1_GWF-(1,14799)
        349          7         49 -5.82727671E-03                    1_GWF-(1,26666)  1.79100386E-03                    1_GWF-(1,14799)
        350          7         50  1.04382428E-02                    1_GWF-(1,11379) -1.73551416E-03                    1_GWF-(1,14799)
        351          8          1 -2.09502055E-02                    1_GWF-(1,11380)  1.74203586E-03                    1_GWF-(1,14799)
        352          8          2 -6.17956962E-03                    1_GWF-(1,11424) -1.55945560E-03                    1_GWF-(1,14799)
        353          8          3  1.63892182E-02                    1_GWF-(1,11380)  1.60395918E-03                    1_GWF-(1,14799)
        354          8          4 -1.80398160E-02                    1_GWF-(1,11380) -1.28738162E-03                    1_GWF-(1,14799)
        355          8          5  5.94519832E-03                    1_GWF-(1,11380)  1.25911556E-03                    1_GWF-(1,14799)
        356          8          6  9.37643865E-03                    1_GWF-(1,11380) -8.26873821E-04                    1_GWF-(1,14799)
        357          8          7 -1.60448686E-02                    1_GWF-(1,11380)  5.59764989E-04                    1_GWF-(1,14799)
        358          8          8  7.66292009E-03                    1_GWF-(1,11380)  1.82518579E-04                    1_GWF-(1,14801)
        359          8          9  8.69760133E-03                    1_GWF-(1,11380) -5.34202290E-04                    1_GWF-(1,14799)
        360          8         10 -1.57443276E-02                    1_GWF-(1,11380)  9.83696949E-04                    1_GWF-(1,14799)
        361          8         11  5.36395351E-03                    1_GWF-(1,11380) -8.93585558E-04                    1_GWF-(1,14799)
        362          8         12  1.08697638E-02                    1_GWF-(1,11380)  7.50256876E-04                    1_GWF-(1,14799)
        363          8         13 -1.55831958E-02                    1_GWF-(1,11380)  3.58066253E-04                    1_GWF-(1,14801)
        364          8         14  5.69030466E-03                    1_GWF-(1,11380)  1.96166458E-04                    1_GWF-(1,14800)
        365          8         15  8.03667481E-03                    1_GWF-(1,11380)  5.32981971E-04                    1_GWF-(1,14799)
        366          8         16 -1.15378049E-02                    1_GWF-(1,11380) -5.34819834E-04                    1_GWF-(1,14799)
        367          8         17 -5.85999231E-03                    1_GWF-(1,26622)  6.12219226E-04                    1_GWF-(1,14799)
        368          8         18  5.90706776E-03                    1_GWF-(1,11380)  4.17256862E-04                    1_GWF-(1,14801)
        369          8         19 -1.07359039E-02                    1_GWF-(1,11380)  4.46638793E-04                    1_GWF-(1,14800)
        370          8         20  7.09698138E-03                    1_GWF-(1,11380)  4.87291645E-04                    1_GWF-(1,14801)
        371          8         21 -6.04218029E-03                    1_GWF-(1,26622)  3.56820959E-04                    1_GWF-(1,14800)
        372          8         22 -8.72393865E-03                    1_GWF-(1,11380)  2.37083329E-04                    1_GWF-(1,14799)
        373          8         23 -5.58501907E-03                    1_GWF-(1,26622)  3.03981502E-04                    1_GWF-(1,14801)
        374          8         24  6.89889570E-03                    1_GWF-(1,11380)  4.47262580E-04                    1_GWF-(1,14800)
        375          8         25 -9.96143343E-03                    1_GWF-(1,11380)  5.82672036E-04                    1_GWF-(1,14801)
        376          8         26 -3.78407045E-03                    1_GWF-(1,26217)  5.39363340E-04                    1_GWF-(1,14800)
        377          8         27  6.34288914E-03                    1_GWF-(1,11380)  5.94947006E-04                    1_GWF-(1,14801)
        378          8         28 -8.83768832E-03                    1_GWF-(1,11380)  3.41032877E-04                    1_GWF-(1,14800)
        379          8         29 -5.59900869E-03                    1_GWF-(1,26486)  2.53566429E-04                    1_GWF-(1,14799)
        380          8         30  6.66632703E-03                    1_GWF-(1,26486)  2.46323095E-04                    1_GWF-(1,14801)
        381          8         31  6.35997668E-03                    1_GWF-(1,26487)  3.73547333E-04                    1_GWF-(1,14800)
        382          8         32  4.40637696E-03                    1_GWF-(1,26420)  4.67099123E-04                    1_GWF-(1,14801)
        383          8         33  4.63674079E-03                    1_GWF-(1,11380)  3.45475747E-04                    1_GWF-(1,14800)
        384          8         34 -5.08322766E-03                    1_GWF-(1,11380)  3.71603952E-04                    1_GWF-(1,14799)
        385          8         35 -4.10091370E-03                    1_GWF-(1,26350)  2.56302769E-04                    1_GWF-(1,14798)
        386          8         36 -4.83869978E-03                    1_GWF-(1,26422)  3.43525335E-04                    1_GWF-(1,14799)
        387          8         37 -4.73927343E-03                    1_GWF-(1,26350)  1.83897062E-04                    1_GWF-(1,14798)
        388          8         38 -5.03592998E-03                    1_GWF-(1,26422)  2.06187127E-04                    1_GWF-(1,14799)
        389          8         39 -3.97762522E-03                    1_GWF-(1,26350)  2.36777879E-04                    1_GWF-(1,14801)
        390          8         40 -3.98858731E-03                    1_GWF-(1,11380)  3.09089854E-04                    1_GWF-(1,14800)
        391          8         41  3.19561587E-03                    1_GWF-(1,11380)  4.38024730E-04                    1_GWF-(1,14801)
        392          8         42  1.87559020E-03                    1_GWF-(1,26350)  4.23246220E-04                    1_GWF-(1,14800)
        393          8         43  2.97924659E-03                    1_GWF-(1,26421)  4.76979842E-04                    1_GWF-(1,14801)
        394          8         44  3.79790641E-03                    1_GWF-(1,11380)  4.19704652E-04                    1_GWF-(1,14800)
        395          8         45  2.69139290E-03                    1_GWF-(1,26421)  4.75073554E-04                    1_GWF-(1,14801)
        396          8         46  2.63173187E-03                    1_GWF-(1,26420)  3.79135686E-04                    1_GWF-(1,14800)
        397          8         47  4.21536806E-03                    1_GWF-(1,11380)  4.05056534E-04                    1_GWF-(1,14801)
        398          8         48 -2.89328235E-03                    1_GWF-(1,11380)  3.20643816E-04                    1_GWF-(1,14800)
        399          8         49  1.88825185E-03                    1_GWF-(1,26537)  3.44160994E-04                    1_GWF-(1,14801)
        400          8         50  4.12034478E-03                    1_GWF-(1,11380)  2.91150943E-04                    1_GWF-(1,14800)
        401          9          1 -3.28074741E-02                    1_GWF-(1,11439)  2.64423778E-04                    1_GWF-(1,14801)
        402          9          2 -1.38301412E-02                    1_GWF-(1,11440)  3.07331321E-04                    1_GWF-(1,14800)
        403          9          3  1.34819160E-02                    1_GWF-(1,11439)  3.95480357E-04                    1_GWF-(1,14801)
        404          9          4 -9.18133146E-03                    1_GWF-(1,11439)  3.43409225E-04                    1_GWF-(1,14800)
        405          9          5 -1.26503968E-02                    1_GWF-(1,11440)  4.01284304E-04                    1_GWF-(1,14801)
        406          9          6  8.95361822E-03                    1_GWF-(1,11440)  3.55525781E-04                    1_GWF-(1,14800)
        407          9          7  6.73620832E-03                    1_GWF-(1,11443)  3.90265621E-04                    1_GWF-(1,14801)
        408          9          8  4.80440111E-03                    1_GWF-(1,11444)  3.44088931E-04                    1_GWF-(1,14800)
        409          9          9  5.89878941E-03                    1_GWF-(1,11440)  3.49359061E-04                    1_GWF-(1,14801)
        410          9         10 -6.41839364E-03                    1_GWF-(1,11440)  2.44050761E-04                    1_GWF-(1,14800)
        411          9         11 -5.20611060E-03                    1_GWF-(1,11443)  1.97975743E-04                    1_GWF-(1,14801)
        412          9         12  4.37205111E-03                    1_GWF-(1,11443)  1.22203359E-04                    1_GWF-(1,14799)
        413          9         13  3.43731076E-03                    1_GWF-(1,11444)  1.32746952E-04                    1_GWF-(1,10966)
        414          9         14 -2.88607699E-03                    1_GWF-(1,11443)  1.91187164E-04                    1_GWF-(1,14799)
        415          9         15  3.05026108E-03                    1_GWF-(1,26486)  1.17974380E-04                    1_GWF-(1,14800)
        416          9         16  2.74941710E-03                    1_GWF-(1,26487)  1.15891750E-04                    1_GWF-(1,14801)
        417          9         17 -2.40497235E-03                    1_GWF-(1,11443)  1.37150614E-04                    1_GWF-(1,14799)
        418          9         18 -2.04327656E-03                    1_GWF-(1,26350)  1.35975029E-04                    1_GWF-(1,14798)
        419          9         19 -2.51438788E-03                    1_GWF-(1,26422)  2.33518692E-04                    1_GWF-(1,14799)
        420          9         20  3.35156229E-03                    1_GWF-(1,15752)  1.93596655E-04                    1_GWF-(1,14800)
        421          9         21 -2.52554351E-03                    1_GWF-(1,26486)  2.42885144E-04                    1_GWF-(1,14801)
        422          9         22  2.51118576E-03                    1_GWF-(1,15754)  2.12895328E-04                    1_GWF-(1,14800)
        423          9         23  2.88149078E-03                    1_GWF-(1,15752)  2.27887614E-04                    1_GWF-(1,14801)
        424          9         24 -3.67206621E-03                    1_GWF-(1,26622)  1.06289339E-04                    1_GWF-(1,14800)
        425          9         25 -3.13216319E-03                    1_GWF-(1,26649)  8.02225868E-05                    1_GWF-(1,14798)
        426          9         26  2.14047124E-03                    1_GWF-(1,15752)  2.05166872E-04                    1_GWF-(1,14801)
        427          9         27  2.09107413E-03                    1_GWF-(1,15753) -2.00976624E-04                    1_GWF-(1,14801)
        428          9         28 -1.77747476E-03                    1_GWF-(1,11380)  2.22018512E-04                    1_GWF-(1,14801)
        429          9         29 -1.87070375E-03                    1_GWF-(1,11443)  2.12749860E-04                    1_GWF-(1,14800)
        430          9         30  1.69222945E-03                    1_GWF-(1,15753)  2.30979581E-04                    1_GWF-(1,14801)
        431          9         31 -1.79326787E-03                    1_GWF-(1,15753) -1.89991686E-04                    1_GWF-(1,14801)
        432          9         32  1.49749683E-03                    1_GWF-(1,11380)  1.65676530E-04                    1_GWF-(1,14801)
        433          9         33 -2.04456298E-03                    1_GWF-(1,11482)  1.77980641E-04                    1_GWF-(1,14799)
        434          9         34 -1.62526656E-03                    1_GWF-(1,15753)  1.53727161E-04                    1_GWF-(1,14798)
        435          9         35 -1.66073094E-03                    1_GWF-(1,26665)  1.95415643E-04                    1_GWF-(1,14799)
        436          9         36  2.08863812E-03                    1_GWF-(1,26665) -8.87642709E-05                    1_GWF-(1,14799)
        437          9         37  2.04680929E-03                    1_GWF-(1,26666)  9.54970776E-05                    1_GWF-(1,14801)
        438          9         38  2.05833181E-03                    1_GWF-(1,26665)  1.43474181E-04                    1_GWF-(1,14799)
        439          9         39 -1.39267466E-03                    1_GWF-(1,11482) -1.61955273E-04                    1_GWF-(1,14799)
        440          9         40 -1.43268005E-03                    1_GWF-(1,26420)  2.14187654E-04                    1_GWF-(1,14799)
        441          9         41 -1.73174773E-03                    1_GWF-(1,26487) -1.57951059E-04                    1_GWF-(1,14799)
        442          9         42 -1.68990376E-03                    1_GWF-(1,26420)  1.16315499E-04                    1_GWF-(1,14799)
        443          9         43  1.47509758E-03                    1_GWF-(1,26588) -6.59736359E-05                    1_GWF-(1,10966)
        444          9         44 -1.43507404E-03                    1_GWF-(1,11484) -1.16174725E-04                    1_GWF-(1,14799)
        445          9         45  1.12844982E-03                    1_GWF-(1,26665)  1.97149762E-04                    1_GWF-(1,14799)
        446          9         46 -9.57168647E-04                    1_GWF-(1,15748) -2.02133002E-04                    1_GWF-(1,14799)
        447          9         47  1.18083631E-03                    1_GWF-(1,11380)  2.60088328E-04                    1_GWF-(1,14799)
        448          9         48 -1.33250962E-03                    1_GWF-(1,11447) -2.52786991E-04                    1_GWF-(1,14799)
        449          9         49  1.10337107E-03                    1_GWF-(1,11483)  3.05378443E-04                    1_GWF-(1,14799)
        450          9         50  1.17405042E-03                    1_GWF-(1,11380) -2.74609899E-04                    1_GWF-(1,14799)
        451         10          1 -1.15996537E-03                    1_GWF-(1,11380)  3.21731869E-04                    1_GWF-(1,14799)
        452         10          2  9.16669542E-04                    1_GWF-(1,26666) -2.59117892E-04                    1_GWF-(1,14799)
        453         10          3  1.11514399E-03                    1_GWF-(1,11380)  2.64980494E-04                    1_GWF-(1,14799)
        454         10          4 -1.16937718E-03                    1_GWF-(1,11380) -2.08474398E-04                    1_GWF-(1,14799)
        455         10          5 -9.40950104E-04                    1_GWF-(1,11483)  1.97809369E-04                    1_GWF-(1,14799)
        456         10          6  8.62097812E-04                    1_GWF-(1,26589) -1.25013766E-04                    1_GWF-(1,14799)
        457         10          7  1.13428775E-03                    1_GWF-(1,26588)  7.00283260E-05                    1_GWF-(1,14799)
        458         10          8 -1.12190804E-03                    1_GWF-(1,26588)  6.61791073E-05                    1_GWF-(1,14799)
        459         10          9  1.26401054E-03                    1_GWF-(1,26420) -1.24082059E-04                    1_GWF-(1,14799)
        460         10         10  1.27759025E-03                    1_GWF-(1,26487)  1.81857744E-04                    1_GWF-(1,14799)
        461         10         11  9.65345412E-04                    1_GWF-(1,26420) -1.40100687E-04                    1_GWF-(1,14799)
        462         10         12  9.35078422E-04                    1_GWF-(1,11439)  1.12374482E-04                    1_GWF-(1,14799)
[...]
        723         15         23 -1.51012838E-05                    1_GWF-(1,11440)  1.55425678E-06                    1_GWF-(1,14801)
        724         15         24 -1.07968057E-05                    1_GWF-(1,26623) -1.14128213E-06                    1_GWF-(1,14801)
        725         15         25  9.48454903E-06                    1_GWF-(1,11440)  1.25330006E-06                    1_GWF-(1,14801)
        726         15         26  1.08159361E-05                    1_GWF-(1,26218)  1.09919366E-06                    1_GWF-(1,14800)
        727         15         27  9.75866650E-06                    1_GWF-(1,26217)  8.03518956E-07                    1_GWF-(1,14801)
        728         15         28  1.10912877E-05                    1_GWF-(1,26622)  5.96190913E-07                    1_GWF-(1,14799)
        729         15         29  1.37293094E-05                    1_GWF-(1,26649)  4.85604974E-07                    1_GWF-(1,14800)
        730         15         30  1.25093270E-05                    1_GWF-(1,26622)  9.03993940E-07                    1_GWF-(1,14801)
        731         15         31  1.01714565E-05                    1_GWF-(1,26486) -7.38028317E-07                    1_GWF-(1,14801)
        732         15         32  9.14833056E-06                    1_GWF-(1,26544)  4.99600713E-07                    1_GWF-(1,14801)
        733         15         33 -1.08014839E-05                    1_GWF-(1,26666)  5.82768657E-07                    1_GWF-(1,14799)
        734         15         34 -1.21099921E-05                    1_GWF-(1,26665)  4.61012889E-07                    1_GWF-(1,14800)
        735         15         35  8.54150043E-06                    1_GWF-(1,26420)  8.70928374E-07                    1_GWF-(1,14801)
        736         15         36  1.26333846E-05                    1_GWF-(1,26218)  8.43985690E-07                    1_GWF-(1,14800)
        737         15         37  8.01556854E-06                    1_GWF-(1,26217)  8.22505539E-07                    1_GWF-(1,14801)
        738         15         38 -6.37146939E-06                    1_GWF-(1,11467)  8.48016874E-07                    1_GWF-(1,14799)
        739         15         39 -7.96068865E-06                    1_GWF-(1,11439) -8.87429682E-07                    1_GWF-(1,14799)
        740         15         40 -6.68654481E-06                    1_GWF-(1,26420)  1.24276158E-06                    1_GWF-(1,14799)
        741         15         41 -8.65923203E-06                    1_GWF-(1,26487) -9.58123040E-07                    1_GWF-(1,14799)
        742         15         42 -9.07043886E-06                    1_GWF-(1,26486)  5.76844747E-07                    1_GWF-(1,14799)
        743         15         43  7.09332652E-06                    1_GWF-(1,26622)  4.48105587E-07                    1_GWF-(1,14799)
        744         15         44 -5.59463141E-06                    1_GWF-(1,26543) -8.90409464E-07                    1_GWF-(1,14799)
        745         15         45 -6.47707322E-06                    1_GWF-(1,11439)  1.35527974E-06                    1_GWF-(1,14799)
        746         15         46 -4.59280485E-06                    1_GWF-(1,25818) -1.36399728E-06                    1_GWF-(1,14799)
        747         15         47  5.10562780E-06                    1_GWF-(1,26422)  1.57601237E-06                    1_GWF-(1,14799)
        748         15         48  6.35913947E-06                    1_GWF-(1,26218) -1.49794997E-06                    1_GWF-(1,14799)
        749         15         49  5.70744097E-06                    1_GWF-(1,26217)  1.67441825E-06                    1_GWF-(1,14799)
        750         15         50  5.37264869E-06                    1_GWF-(1,11440) -1.09042924E-06                    1_GWF-(1,14799)
        751         16          1 -4.58166084E-06                    1_GWF-(1,11427)  1.77155322E-06                    1_GWF-(1,14799)
        752         16          2 -5.04923986E-06                    1_GWF-(1,26217) -1.13642817E-06                    1_GWF-(1,14799)
        753         16          3 -5.64540022E-06                    1_GWF-(1,26487)  6.90894474E-07                    1_GWF-(1,14799)
        754         16          4 -6.87488964E-06                    1_GWF-(1,26420)  2.18186488E-07                    1_GWF-(1,14799)
        755         16          5 -6.43640912E-06                    1_GWF-(1,26487) -7.65887678E-07                    1_GWF-(1,14799)
        756         16          6 -5.23875645E-06                    1_GWF-(1,26486)  1.19577950E-06                    1_GWF-(1,14799)
        757         16          7  4.05527128E-06                    1_GWF-(1,26350) -1.15783611E-06                    1_GWF-(1,14799)
        758         16          8  4.17852499E-06                    1_GWF-(1,26487)  9.24210270E-07                    1_GWF-(1,14799)
        759         16          9  6.30688464E-06                    1_GWF-(1,26486)  2.33367779E-07                    1_GWF-(1,14798)
        760         16         10 -5.94395534E-06                    1_GWF-(1,26543)  4.11308631E-07                    1_GWF-(1,14798)
        761         16         11  5.22860108E-06                    1_GWF-(1,26649)  9.99303661E-07                    1_GWF-(1,14799)
        762         16         12  5.09978830E-06                    1_GWF-(1,26588) -1.06904067E-06                    1_GWF-(1,14799)
        763         16         13  4.31063772E-06                    1_GWF-(1,26589)  1.15332839E-06                    1_GWF-(1,14799)
        764         16         14  4.11106905E-06                    1_GWF-(1,11446) -7.30800122E-07                    1_GWF-(1,14799)
        765         16         15 -5.75504892E-06                    1_GWF-(1,26217)  6.24871975E-07                    1_GWF-(1,14799)
        766         16         16 -4.98381868E-06                    1_GWF-(1,26218)  4.02951973E-07                    1_GWF-(1,14801)
        767         16         17 -4.59341187E-06                    1_GWF-(1,26649)  3.62186253E-07                    1_GWF-(1,14800)
        768         16         18 -4.78388941E-06                    1_GWF-(1,26622)  2.07267245E-07                    1_GWF-(1,14801)
        769         16         19  4.95334366E-06                    1_GWF-(1,26622)  2.69514401E-07                    1_GWF-(1,14798)
        770         16         20 -4.09585659E-06                    1_GWF-(1,26589)  3.79705603E-07                    1_GWF-(1,14799)
        771         16         21  4.51926164E-06                    1_GWF-(1,26217)  5.13226192E-07                    1_GWF-(1,14801)
        772         16         22  3.43326129E-06                    1_GWF-(1,26218) -4.46131216E-07                    1_GWF-(1,14801)
        773         16         23 -3.44429755E-06                    1_GWF-(1,26218)  5.22309225E-07                    1_GWF-(1,14801)
        774         16         24 -4.29632182E-06                    1_GWF-(1,26217)  4.77043818E-07                    1_GWF-(1,14800)
        775         16         25  4.13500399E-06                    1_GWF-(1,11440)  4.34745251E-07                    1_GWF-(1,14801)
        776         16         26  3.60313795E-06                    1_GWF-(1,26665) -2.56995375E-07                    1_GWF-(1,14801)
        777         16         27  4.80689742E-06                    1_GWF-(1,26623)  2.97396043E-07                    1_GWF-(1,14799)
        778         16         28  5.07292291E-06                    1_GWF-(1,26622)  1.70800428E-07                    1_GWF-(1,14798)
        779         16         29  3.76561399E-06                    1_GWF-(1,26666) -2.29491135E-07                    1_GWF-(1,14801)
        780         16         30  3.28061229E-06                    1_GWF-(1,26665)  3.43767569E-07                    1_GWF-(1,14801)
        781         16         31  4.55521514E-06                    1_GWF-(1,11440)  3.53366210E-07                    1_GWF-(1,14800)
        782         16         32  3.03083088E-06                    1_GWF-(1,26420)  3.87838008E-07                    1_GWF-(1,14799)
        783         16         33  3.44154172E-06                    1_GWF-(1,26422)  2.83501633E-07                    1_GWF-(1,14800)
        784         16         34  3.41834612E-06                    1_GWF-(1,11440)  2.61802899E-07                    1_GWF-(1,14799)
        785         16         35 -3.64401523E-06                    1_GWF-(1,26420)  9.26374177E-08                    1_GWF-(1,14798)
        786         16         36 -3.29836962E-06                    1_GWF-(1,26487)  1.88342370E-07                    1_GWF-(1,14800)
        787         16         37 -3.37007734E-06                    1_GWF-(1,26486)  3.30468260E-07                    1_GWF-(1,14801)
        788         16         38 -3.90231166E-06                    1_GWF-(1,26350) -2.61883011E-07                    1_GWF-(1,14799)
        789         16         39 -3.72372582E-06                    1_GWF-(1,26422)  3.13808032E-07                    1_GWF-(1,14799)
        790         16         40 -2.41062000E-06                    1_GWF-(1,26350)  1.04127984E-07                    1_GWF-(1,14798)
        791         16         41  4.65564658E-06                    1_GWF-(1,11439)  2.06710586E-07                    1_GWF-(1,14800)
        792         16         42 -3.94030392E-06                    1_GWF-(1,26588)  2.76425169E-07                    1_GWF-(1,14801)
        793         16         43  2.61368750E-06                    1_GWF-(1,26588)  1.58058207E-07                    1_GWF-(1,14800)
        794         16         44  3.92935056E-06                    1_GWF-(1,11439)  1.03214350E-07                    1_GWF-(1,14799)
        795         16         45 -3.48333915E-06                    1_GWF-(1,11439)  1.57608681E-07                    1_GWF-(1,14801)
        796         16         46  3.08101793E-06                    1_GWF-(1,11443)  2.52835036E-07                    1_GWF-(1,14800)
        797         16         47  3.95985731E-06                    1_GWF-(1,11439)  4.01716807E-07                    1_GWF-(1,14801)
        798         16         48 -4.54018876E-06                    1_GWF-(1,11440)  4.05191395E-07                    1_GWF-(1,14800)
        799         16         49  3.11950606E-06                    1_GWF-(1,11443)  4.63755883E-07                    1_GWF-(1,14801)
        800         16         50  5.80712550E-06                    1_GWF-(1,11440)  2.06732459E-07                    1_GWF-(1,14800)
        801         17          1 -5.07532370E-06                    1_GWF-(1,11440)  3.49053982E-07                    1_GWF-(1,14801)
        802         17          2  2.77212305E-06                    1_GWF-(1,26487)  1.18441142E-07                    1_GWF-(1,14800)
        803         17          3  5.45112458E-06                    1_GWF-(1,11440)  1.75549932E-07                    1_GWF-(1,14800)
        804         17          4 -2.37677127E-06                    1_GWF-(1,26486)  3.50041071E-07                    1_GWF-(1,14801)
        805         17          5 -4.73376185E-06                    1_GWF-(1,11439) -3.69568802E-07                    1_GWF-(1,14801)
        806         17          6  3.18882145E-06                    1_GWF-(1,11439)  4.82113167E-07                    1_GWF-(1,14801)
        807         17          7 -2.81832540E-06                    1_GWF-(1,26422)  2.96569914E-07                    1_GWF-(1,14800)
        808         17          8 -4.12745074E-06                    1_GWF-(1,11439)  1.15412286E-07                    1_GWF-(1,14801)
        809         17          9  2.49155972E-06                    1_GWF-(1,11439)  1.89494993E-07                    1_GWF-(1,14801)
        810         17         10  2.92444237E-06                    1_GWF-(1,26649)  2.73217951E-07                    1_GWF-(1,14800)
        811         17         11 -3.27314624E-06                    1_GWF-(1,11439)  2.13198564E-07                    1_GWF-(1,14801)
        812         17         12  1.86723795E-06                    1_GWF-(1,11439)  1.13893498E-07                    1_GWF-(1,14800)
        813         17         13  2.17375784E-06                    1_GWF-(1,26422)  5.97011335E-08                    1_GWF-(1,14798)
        814         17         14 -2.75800091E-06                    1_GWF-(1,11439)  1.68728982E-07                    1_GWF-(1,14799)
        815         17         15 -1.98999631E-06                    1_GWF-(1,26666)  1.30226944E-07                    1_GWF-(1,14800)
        816         17         16  1.78344994E-06                    1_GWF-(1,26666)  1.74360653E-07                    1_GWF-(1,14801)
        817         17         17 -2.81542993E-06                    1_GWF-(1,11439)  9.60745694E-08                    1_GWF-(1,14800)
        818         17         18  1.66713230E-06                    1_GWF-(1,26486)  1.01848669E-07                    1_GWF-(1,14798)
        819         17         19  1.91547131E-06                    1_GWF-(1,11440)  1.50059937E-07                    1_GWF-(1,14799)
        820         17         20  2.16344304E-06                    1_GWF-(1,26588)  1.43486182E-07                    1_GWF-(1,14800)
        821         17         21 -2.09042527E-06                    1_GWF-(1,26486)  1.57939423E-07                    1_GWF-(1,14799)
        822         17         22  1.59853105E-06                    1_GWF-(1,11440)  9.27060789E-08                    1_GWF-(1,14800)
        823         17         23 -2.41035880E-06                    1_GWF-(1,26622) -7.58146998E-08                    1_GWF-(1,14799)
        824         17         24 -2.46131898E-06                    1_GWF-(1,26623)  1.91652045E-07                    1_GWF-(1,14799)
        825         17         25 -2.22310066E-06                    1_GWF-(1,26622)  1.36806489E-07                    1_GWF-(1,14798)
        826         17         26 -1.65184359E-06                    1_GWF-(1,26623)  1.43808815E-07                    1_GWF-(1,14801)
        827         17         27  1.39515260E-06                    1_GWF-(1,26588)  6.33758006E-08                    1_GWF-(1,14800)
        828         17         28 -1.26867497E-06                    1_GWF-(1,26588)  9.82117737E-08                    1_GWF-(1,14798)
        829         17         29 -1.18390323E-06                    1_GWF-(1,26422)  1.55021808E-07                    1_GWF-(1,14799)
        830         17         30 -1.60686026E-06                    1_GWF-(1,11440)  1.31487958E-07                    1_GWF-(1,14800)
        831         17         31  1.22751346E-06                    1_GWF-(1,26588)  1.39016980E-07                    1_GWF-(1,14801)
        832         17         32  1.38711049E-06                    1_GWF-(1,26486)  1.21142089E-07                    1_GWF-(1,14800)
        833         17         33  1.33700401E-06                    1_GWF-(1,26544)  1.25830419E-07                    1_GWF-(1,14801)
        834         17         34  1.42525441E-06                    1_GWF-(1,26486)  6.28463363E-08                    1_GWF-(1,14799)
        835         17         35  1.48896719E-06                    1_GWF-(1,26487)  6.19505341E-08                    1_GWF-(1,14798)
        836         17         36  1.41897048E-06                    1_GWF-(1,26350)  1.17999853E-07                    1_GWF-(1,14801)
        837         17         37  1.26867067E-06                    1_GWF-(1,26218)  1.12098695E-07                    1_GWF-(1,14800)
        838         17         38  7.87579290E-07                    1_GWF-(1,26420)  1.38859065E-07                    1_GWF-(1,14801)
        839         18          1 -8.36714762E-07                    1_GWF-(1,26217)  1.25356871E-07                    1_GWF-(1,14800)
 --------------------------------------------------------------------------------------------------------------------------------------


 UBDSV1 SAVING     FLOW-JA-FACE ON UNIT   1020 AT TIME STEP      1, STRESS PERIOD      1
 UBDSV06 SAVING       DATA-SPDIS IN MODEL ML               PACKAGE NPF             CONNECTED TO MODEL ML               PACKAGE NPF              ON UNIT   1020 AT TIME STEP      1, STRESS PERIOD      1
 UBDSV06 SAVING              WEL IN MODEL ML               PACKAGE ML              CONNECTED TO MODEL ML               PACKAGE WEL_0            ON UNIT   1020 AT TIME STEP      1, STRESS PERIOD      1
 UBDSV06 SAVING              DRN IN MODEL ML               PACKAGE ML              CONNECTED TO MODEL ML               PACKAGE DRN_0            ON UNIT   1020 AT TIME STEP      1, STRESS PERIOD      1
 UBDSV06 SAVING              RIV IN MODEL ML               PACKAGE ML              CONNECTED TO MODEL ML               PACKAGE RIV_0            ON UNIT   1020 AT TIME STEP      1, STRESS PERIOD      1
 UBDSV06 SAVING              GHB IN MODEL ML               PACKAGE ML              CONNECTED TO MODEL ML               PACKAGE GHB_0            ON UNIT   1020 AT TIME STEP      1, STRESS PERIOD      1
 UBDSV06 SAVING              RCH IN MODEL ML               PACKAGE ML              CONNECTED TO MODEL ML               PACKAGE RCHA_0           ON UNIT   1020 AT TIME STEP      1, STRESS PERIOD      1

 HEAD WILL BE SAVED ON UNIT 1021 AT END OF TIME STEP    1, STRESS PERIOD    1


  VOLUME BUDGET FOR ENTIRE MODEL AT END OF TIME STEP    1, STRESS PERIOD   1
  ---------------------------------------------------------------------------------------------------

     CUMULATIVE VOLUME      L**3       RATES FOR THIS TIME STEP      L**3/T          PACKAGE NAME    
     ------------------                 ------------------------                     ----------------

           IN:                                      IN:
           ---                                      ---
                 WEL =           0.0000                   WEL =           0.0000     WEL_0           
                 DRN =           0.0000                   DRN =           0.0000     DRN_0           
                 RIV =           2.3272                   RIV =           1.1636     RIV_0           
                 GHB =           2.8495                   GHB =           1.4248     GHB_0           
                 RCH =           1.6527                   RCH =           0.8264     RCHA_0          

            TOTAL IN =           6.8295              TOTAL IN =           3.4147

          OUT:                                     OUT:
          ----                                     ----
                 WEL =           0.4153                   WEL =           0.2076     WEL_0           
                 DRN =           0.3520                   DRN =           0.1760     DRN_0           
                 RIV =           5.7764                   RIV =           2.8882     RIV_0           
                 GHB =           0.2858                   GHB =           0.1429     GHB_0           
                 RCH =           0.0000                   RCH =           0.0000     RCHA_0          

           TOTAL OUT =           6.8295             TOTAL OUT =           3.4147

            IN - OUT =      -1.7301E-06              IN - OUT =      -8.6507E-07

 PERCENT DISCREPANCY =          -0.00     PERCENT DISCREPANCY =          -0.00




         TIME SUMMARY AT END OF TIME STEP    1 IN STRESS PERIOD    1
                    SECONDS     MINUTES      HOURS       DAYS        YEARS
                    -----------------------------------------------------------
   TIME STEP LENGTH  2.0000     3.33333E-02 5.55556E-04 2.31481E-05 6.33762E-08
 STRESS PERIOD TIME  2.0000     3.33333E-02 5.55556E-04 2.31481E-05 6.33762E-08
         TOTAL TIME  2.0000     3.33333E-02 5.55556E-04 2.31481E-05 6.33762E-08


end timestep

