                                   MODFLOW 6
                U.S. GEOLOGICAL SURVEY MODULAR HYDROLOGIC MODEL
                            VERSION 6.2.2 07/30/2021

   MODFLOW 6 compiled Jul 31 2021 14:22:53 with IFORT compiler (ver. 19.10.3)

This software has been approved for release by the U.S. Geological 
Survey (USGS). Although the software has been subjected to rigorous 
review, the USGS reserves the right to update the software as needed 
pursuant to further analysis and review. No warranty, expressed or 
implied, is made by the USGS or the U.S. Government as to the 
functionality of the software and related material nor shall the 
fact of release constitute any such warranty. Furthermore, the 
software is released on condition that neither the USGS nor the U.S. 
Government shall be held liable for any damages resulting from its 
authorized or unauthorized use. Also refer to the USGS Water 
Resources Software User Rights Notice for complete use, copyright, 
and distribution information.


System command used to initiate simulation:
mf6

MODFLOW was compiled using uniform precision.

Real Variables
  KIND: 8
  TINY (smallest non-zero value):    2.225074-308
  HUGE (largest value):    1.797693+308
  PRECISION: 15
  BIT SIZE: 64

Integer Variables
  KIND: 4
  HUGE (largest value): 2147483647
  BIT SIZE: 32

Long Integer Variables
  KIND: 8
  HUGE (largest value): 9223372036854775807
  BIT SIZE: 64

Logical Variables
  KIND: 4
  BIT SIZE: 32
 

 OPENED mfsim.nam
 FILE TYPE:NAM   UNIT 1001   STATUS:OLD                 
 FORMAT:FORMATTED              ACCESS:SEQUENTIAL          
 ACTION:READ                

 # File generated by Flopy version 3.3.5 on 04/25/2022 at 00:15:30.

 READING SIMULATION OPTIONS
 END OF SIMULATION OPTIONS

 READING SIMULATION TIMING

 OPENED mfsim.tdis
 FILE TYPE:TDIS   UNIT 1002   STATUS:OLD                 
 FORMAT:FORMATTED              ACCESS:SEQUENTIAL          
 ACTION:READ                


 TDIS -- TEMPORAL DISCRETIZATION PACKAGE,
 VERSION 1 : 11/13/2014 - INPUT READ FROM UNIT 1002
 # File generated by Flopy version 3.3.5 on 04/25/2022 at 00:15:30.
 PROCESSING TDIS OPTIONS
    SIMULATION TIME UNIT IS SECONDS
 END OF TDIS OPTIONS
 PROCESSING TDIS DIMENSIONS
    1 STRESS PERIOD(S) IN SIMULATION
 END OF TDIS DIMENSIONS
 PROCESSING TDIS PERIODDATA


 STRESS PERIOD     LENGTH       TIME STEPS     MULTIPLIER FOR DELT
 ----------------------------------------------------------------------------
        1         4.000000          1                    1.000
 END OF TDIS PERIODDATA
 END OF SIMULATION TIMING

 READING SIMULATION MODELS
    GWF6 model ML will be created as model 1
 END OF SIMULATION MODELS

 READING SIMULATION EXCHANGES
 END OF SIMULATION EXCHANGES

 READING SOLUTIONGROUP

 Creating solution: SLN_1           

 OPENED mfsim.ims
 FILE TYPE:IMS   UNIT 1015   STATUS:OLD                 
 FORMAT:FORMATTED              ACCESS:SEQUENTIAL          
 ACTION:READ                

 END OF SIMULATION SOLUTIONGROUP

 IMS -- ITERATIVE MODEL SOLUTION PACKAGE, VERSION 6, 4/28/2017
         INPUT READ FROM UNIT 1015
 # File generated by Flopy version 3.3.5 on 04/25/2022 at 00:15:30.

 PROCESSING IMS OPTIONS
 END OF IMS OPTIONS

 PROCESSING IMS NONLINEAR
 END OF IMS NONLINEAR DATA
 ***UNDER-RELAXATION WILL NOT BE USED***
 
 ***IMS LINEAR SOLVER WILL BE USED***

 IMSLINEAR -- UNSTRUCTURED LINEAR SOLUTION PACKAGE, VERSION 8, 04/28/2017

 PROCESSING LINEAR DATA
 END OF LINEAR DATA
 
 OUTER ITERATION CONVERGENCE CRITERION    (DVCLOSE) =    0.100000E-04
 MAXIMUM NUMBER OF OUTER ITERATIONS        (MXITER) = 100
 SOLVER PRINTOUT INDEX                     (IPRIMS) = 2
 NONLINEAR ITERATION METHOD            (NONLINMETH) = 0
 LINEAR SOLUTION METHOD                   (LINMETH) = 1

       SOLUTION BY THE        CONJUGATE-GRADIENT       METHOD
 ------------------------------------------------------------------
 MAXIMUM OF 100 CALLS OF SOLUTION ROUTINE
 MAXIMUM OF 50 INTERNAL ITERATIONS PER CALL TO SOLUTION ROUTINE
 LINEAR ACCELERATION METHOD            = CG        
 MATRIX PRECONDITIONING TYPE           = INCOMPLETE LU       
 MATRIX SCALING APPROACH               = NO SCALING          
 MATRIX REORDERING APPROACH            = ORIGINAL ORDERING        
 NUMBER OF ORTHOGONALIZATIONS          = 0
 HEAD CHANGE CRITERION FOR CLOSURE     =    0.10000E-05
 RESIDUAL CHANGE CRITERION FOR CLOSURE =    0.10000E-04
 RESIDUAL CONVERGENCE OPTION           = 1
 RESIDUAL CONVERGENCE NORM             = INFINITY NORM S 
 RELAXATION FACTOR                     =    0.00000E+00



 
    Solving:  Stress period:     1    Time step:     1
 
1
                            STRESS PERIOD NO. 1, LENGTH =   4.000000    
                            -----------------------------------------------
                            NUMBER OF TIME STEPS = 1
                            MULTIPLIER FOR DELT =     1.000
                            INITIAL TIME STEP SIZE =   4.000000    

 SLN_1 OUTER ITERATION SUMMARY
 ----------------------------------------------------------------------------------------------------------
                                OUTER      INNER                    STEP   MAXIMUM CHANGE MODEL-(CELLID) OR
 OUTER ITERATION STEP       ITERATION  ITERATION  MAXIMUM CHANGE SUCCESS             MODEL-PACKAGE-(NUMBER)
 ----------------------------------------------------------------------------------------------------------
 Model                              1         50       610.33947                            1_GWF-(1,26381)
 Model                              2         50      -607.64618                            1_GWF-(1,26381)
 Model                              3         50      -2.4717176                            1_GWF-(1,23178)
 Model                              4         50     -0.57389887                            1_GWF-(1,22353)
 Model                              5         50 -6.31337044E-02                            1_GWF-(1,11378)
 Model                              6         50 -8.87277642E-03                            1_GWF-(1,22363)
 Model                              7         50  1.20568768E-03                            1_GWF-(1,21839)
 Model                              8         50 -4.43125870E-04                            1_GWF-(1,22362)
 Model                              9         50  4.21894327E-05                            1_GWF-(1,21836)
 Model                             10         28 -1.75495151E-05                            1_GWF-(1,22378)
 Model                             11          1  8.06073292E-07       *                    1_GWF-(1,26420)
 ----------------------------------------------------------------------------------------------------------


 11 CALLS TO NUMERICAL SOLUTION IN TIME STEP 1 STRESS PERIOD 1
 479 TOTAL ITERATIONS

 SLN_1 INNER ITERATION SUMMARY
 --------------------------------------------------------------------------------------------------------------------------------------
      TOTAL      OUTER      INNER                                                            MAXIMUM                                   
  ITERATION  ITERATION  ITERATION  MAXIMUM CHANGE      MAXIMUM CHANGE MODEL-(CELLID)        RESIDUAL    MAXIMUM RESIDUAL MODEL-(CELLID)
 --------------------------------------------------------------------------------------------------------------------------------------
          1          1          1       183.02714                    1_GWF-(1,26381)       1.9458815                     1_GWF-(1,7788)
          2          1          2       273.14960                    1_GWF-(1,26380)      -1.1320440                    1_GWF-(1,15907)
          3          1          3       157.68541                    1_GWF-(1,26444)      0.85934275                    1_GWF-(1,15907)
          4          1          4       83.381923                    1_GWF-(1,26380)      0.57220922                    1_GWF-(1,15226)
          5          1          5       66.816103                    1_GWF-(1,26520)     -0.37922020                    1_GWF-(1,15221)
          6          1          6       60.503619                    1_GWF-(1,26572)      0.45990524                    1_GWF-(1,15216)
          7          1          7       62.495111                    1_GWF-(1,26648)      0.40434163                    1_GWF-(1,15226)
          8          1          8       53.600406                    1_GWF-(1,26649)     -0.36383530                    1_GWF-(1,15226)
          9          1          9       39.069241                    1_GWF-(1,26589)      0.33136165                    1_GWF-(1,15221)
         10          1         10       32.677472                    1_GWF-(1,26543)     -0.17088539                    1_GWF-(1,15216)
         11          1         11       24.860280                    1_GWF-(1,26544)     -0.15650933                    1_GWF-(1,15226)
         12          1         12       20.996463                    1_GWF-(1,26420)      0.19832889                    1_GWF-(1,15221)
         13          1         13       18.469530                    1_GWF-(1,26422) -6.96393237E-02                    1_GWF-(1,15216)
         14          1         14       13.345984                    1_GWF-(1,26350) -9.22679057E-02                    1_GWF-(1,15221)
         15          1         15       8.5990240                    1_GWF-(1,26218)  9.96182785E-02                    1_GWF-(1,15221)
         16          1         16      -8.2441302                    1_GWF-(1,26622)  4.53923201E-02                    1_GWF-(1,11047)
         17          1         17      -6.5341653                    1_GWF-(1,26623)     -0.11809232                    1_GWF-(1,15221)
         18          1         18      -6.1783993                    1_GWF-(1,26543)      0.12151356                    1_GWF-(1,15221)
         19          1         19      -6.8599097                    1_GWF-(1,26588)  6.12470189E-02                    1_GWF-(1,11152)
         20          1         20       10.395163                    1_GWF-(1,26588)     -0.10778744                    1_GWF-(1,15221)
         21          1         21      -8.3495679                    1_GWF-(1,26588)  6.72552162E-02                    1_GWF-(1,15221)
         22          1         22      -8.7014305                    1_GWF-(1,26543)  7.44888631E-02                    1_GWF-(1,15910)
         23          1         23      -7.6962792                    1_GWF-(1,26544)     -0.11391690                    1_GWF-(1,15221)
         24          1         24      -11.087794                    1_GWF-(1,26486)  5.13634373E-02                    1_GWF-(1,15221)
         25          1         25      -10.318628                    1_GWF-(1,26487)  8.69897846E-02                    1_GWF-(1,15910)
         26          1         26       10.894379                    1_GWF-(1,26487) -9.03026059E-02                    1_GWF-(1,15221)
         27          1         27       10.589912                    1_GWF-(1,26420) -5.26217625E-02                    1_GWF-(1,11203)
         28          1         28       6.3407204                    1_GWF-(1,26487)  6.36767706E-02                    1_GWF-(1,15910)
         29          1         29       4.5214382                    1_GWF-(1,26542) -5.85926919E-02                    1_GWF-(1,15221)
         30          1         30       5.1612193                    1_GWF-(1,26623) -3.42977102E-02                    1_GWF-(1,11050)
         31          1         31       3.8562681                    1_GWF-(1,26586)  4.61434266E-02                    1_GWF-(1,15910)
         32          1         32       3.8979297                    1_GWF-(1,26422) -5.11613740E-02                    1_GWF-(1,11203)
         33          1         33       4.3574019                    1_GWF-(1,26544) -4.38724545E-02                    1_GWF-(1,11200)
         34          1         34       3.9378091                    1_GWF-(1,26665)  2.85941055E-02                    1_GWF-(1,15910)
         35          1         35       3.4887328                    1_GWF-(1,26350) -2.88270284E-02                    1_GWF-(1,15221)
         36          1         36       3.7821071                    1_GWF-(1,26422) -2.44575647E-02                    1_GWF-(1,11200)
         37          1         37      -2.7321611                    1_GWF-(1,26422) -2.39223998E-02                    1_GWF-(1,11152)
         38          1         38      -3.4709969                    1_GWF-(1,26350) -2.80318767E-02                    1_GWF-(1,15216)
         39          1         39      -2.3555928                    1_GWF-(1,26622) -3.53434106E-02                    1_GWF-(1,11206)
         40          1         40      -2.4148685                    1_GWF-(1,26648)  2.73634530E-02                    1_GWF-(1,11108)
         41          1         41      -1.8637569                    1_GWF-(1,26649)  2.92020569E-02                    1_GWF-(1,11159)
         42          1         42      -1.7071483                    1_GWF-(1,26623)  3.60066243E-02                    1_GWF-(1,11197)
         43          1         43      -1.6211828                    1_GWF-(1,26586) -3.21225520E-02                    1_GWF-(1,11206)
         44          1         44      -1.2308036                    1_GWF-(1,26543)  3.96194754E-02                    1_GWF-(1,11206)
         45          1         45      -1.2161509                    1_GWF-(1,26486)  2.40175798E-02                    1_GWF-(1,11201)
         46          1         46       1.0191355                    1_GWF-(1,26649) -2.12515427E-02                    1_GWF-(1,11201)
         47          1         47       1.1802677                    1_GWF-(1,26648) -2.18908018E-02                    1_GWF-(1,12427)
         48          1         48      -1.5726354                    1_GWF-(1,26218)  2.48572671E-02                    1_GWF-(1,11197)
         49          1         49      -1.6087253                    1_GWF-(1,26217) -1.71895112E-02                    1_GWF-(1,11206)
         50          1         50       1.1503931                    1_GWF-(1,26217)  1.34256324E-02                    1_GWF-(1,11206)
         51          2          1      -609.51587                    1_GWF-(1,26381)      -3.3976346                    1_GWF-(1,26381)
         52          2          2      -219.92712                    1_GWF-(1,26513)       1.1514722                    1_GWF-(1,26381)
         53          2          3      -104.62719                    1_GWF-(1,26440)      0.72238257                    1_GWF-(1,26506)
         54          2          4      -62.890351                    1_GWF-(1,26665)     -0.29510584                    1_GWF-(1,26506)
         55          2          5      -52.703959                    1_GWF-(1,26649)      0.28497473                    1_GWF-(1,26381)
         56          2          6      -45.617587                    1_GWF-(1,26589)     -0.30883129                    1_GWF-(1,26381)
         57          2          7      -41.543204                    1_GWF-(1,26588)     -0.25949628                    1_GWF-(1,26506)
         58          2          8      -32.149964                    1_GWF-(1,26544)      0.13356265                    1_GWF-(1,26506)
         59          2          9      -25.653006                    1_GWF-(1,26487)     -0.11619457                    1_GWF-(1,26381)
         60          2         10      -19.074253                    1_GWF-(1,26421)     -0.12238759                    1_GWF-(1,26506)
         61          2         11      -17.103404                    1_GWF-(1,26348)  5.25310863E-02                    1_GWF-(1,26665)
         62          2         12      -13.067390                    1_GWF-(1,26218) -7.81092043E-02                    1_GWF-(1,26381)
         63          2         13      -7.9513602                    1_GWF-(1,26218) -7.32421863E-02                    1_GWF-(1,26506)
         64          2         14      -6.6352252                    1_GWF-(1,26649)  2.97014824E-02                    1_GWF-(1,26551)
         65          2         15      -8.1064481                    1_GWF-(1,26622) -6.70106686E-02                    1_GWF-(1,26381)
         66          2         16      -8.4477189                    1_GWF-(1,26623) -7.82461658E-02                    1_GWF-(1,26506)
         67          2         17      -7.0783283                    1_GWF-(1,26622)  4.21590658E-02                    1_GWF-(1,26551)
         68          2         18       7.0628477                    1_GWF-(1,26422) -7.94098114E-02                    1_GWF-(1,26381)
         69          2         19       7.0675838                    1_GWF-(1,26588) -7.34355484E-02                    1_GWF-(1,26506)
         70          2         20       9.0259939                    1_GWF-(1,26543) -3.93004697E-02                    1_GWF-(1,26447)
         71          2         21       10.389562                    1_GWF-(1,26588) -9.06646511E-02                    1_GWF-(1,26381)
         72          2         22       10.307633                    1_GWF-(1,26543) -6.94226967E-02                    1_GWF-(1,26506)
         73          2         23       7.3793716                    1_GWF-(1,26542) -5.50395403E-02                    1_GWF-(1,26447)
         74          2         24      -7.9086846                    1_GWF-(1,26487) -9.87657623E-02                    1_GWF-(1,26381)
         75          2         25      -10.287873                    1_GWF-(1,26486) -5.40985819E-02                    1_GWF-(1,26506)
         76          2         26      -11.288317                    1_GWF-(1,26487)  8.01625625E-02                    1_GWF-(1,26381)
         77          2         27      -7.8377924                    1_GWF-(1,26486)      0.10256720                    1_GWF-(1,26506)
         78          2         28      -4.5908996                    1_GWF-(1,26477) -5.02285603E-02                    1_GWF-(1,26506)
         79          2         29      -3.0231376                    1_GWF-(1,26649)  3.79079343E-02                    1_GWF-(1,26381)
         80          2         30       3.1943082                    1_GWF-(1,26420)  6.27590917E-02                    1_GWF-(1,26506)
         81          2         31      -2.7720063                    1_GWF-(1,26663) -4.55114417E-02                    1_GWF-(1,26506)
         82          2         32      -2.9660690                    1_GWF-(1,26421) -2.25331124E-02                    1_GWF-(1,26378)
         83          2         33      -3.7838643                    1_GWF-(1,26350) -4.92728349E-02                    1_GWF-(1,26381)
         84          2         34      -2.8014860                    1_GWF-(1,26422) -5.12361168E-02                    1_GWF-(1,26506)
         85          2         35       3.7887865                    1_GWF-(1,26422) -2.46901006E-02                    1_GWF-(1,26378)
         86          2         36       3.2663357                    1_GWF-(1,26350) -3.49050093E-02                    1_GWF-(1,26381)
         87          2         37      -3.0750398                    1_GWF-(1,26350) -4.56553332E-02                    1_GWF-(1,26506)
         88          2         38       2.8356357                    1_GWF-(1,26350) -2.00929377E-02                    1_GWF-(1,26378)
         89          2         39       3.2978498                    1_GWF-(1,26422) -3.02444347E-02                    1_GWF-(1,26381)
         90          2         40       2.1845222                    1_GWF-(1,26350) -4.32170764E-02                    1_GWF-(1,26506)
         91          2         41       1.3621199                    1_GWF-(1,26217)  2.67885666E-02                    1_GWF-(1,26506)
         92          2         42      0.96570173                    1_GWF-(1,26218)  1.59448008E-02                     1_GWF-(1,9691)
         93          2         43       1.0485853                    1_GWF-(1,26663)  2.71173909E-02                    1_GWF-(1,26381)
         94          2         44     -0.90709142                    1_GWF-(1,26217)  2.79307191E-02                    1_GWF-(1,26506)
         95          2         45     -0.75417324                    1_GWF-(1,26192)  2.08743444E-02                     1_GWF-(1,9692)
         96          2         46     -0.64143271                    1_GWF-(1,26242)  3.41343822E-02                     1_GWF-(1,9691)
         97          2         47     -0.76603128                    1_GWF-(1,26218)  3.47827804E-02                     1_GWF-(1,9692)
         98          2         48      -1.0735107                    1_GWF-(1,26217)  6.26957365E-02                     1_GWF-(1,9691)
         99          2         49      0.73707591                    1_GWF-(1,25377) -7.54612637E-02                     1_GWF-(1,9691)
        100          2         50     -0.70088248                    1_GWF-(1,23037)      0.10916156                     1_GWF-(1,9691)
        101          3          1      0.40177856                    1_GWF-(1,26674) -5.65250638E-02                     1_GWF-(1,9691)
        102          3          2      0.52504571                    1_GWF-(1,22782)      0.12022451                     1_GWF-(1,9691)
        103          3          3      0.66430330                    1_GWF-(1,26217)     -0.10484652                     1_GWF-(1,9691)
        104          3          4      0.69033371                    1_GWF-(1,26218)      0.10042928                     1_GWF-(1,9691)
        105          3          5      0.40896810                    1_GWF-(1,26422) -9.74388195E-02                     1_GWF-(1,9691)
        106          3          6     -0.34715421                    1_GWF-(1,26217)      0.11550679                     1_GWF-(1,9691)
        107          3          7      0.40686622                    1_GWF-(1,26194) -9.19100177E-02                     1_GWF-(1,9691)
        108          3          8      0.29694290                    1_GWF-(1,26407)  8.88976718E-02                     1_GWF-(1,9691)
        109          3          9      0.41599688                    1_GWF-(1,13206) -7.65214336E-02                     1_GWF-(1,9691)
        110          3         10      0.41555855                    1_GWF-(1,13192)  8.09134852E-02                     1_GWF-(1,9691)
        111          3         11     -0.42001593                    1_GWF-(1,26543) -6.19871610E-02                     1_GWF-(1,9691)
        112          3         12      0.53853557                    1_GWF-(1,26648)  6.05605445E-02                     1_GWF-(1,9691)
        113          3         13     -0.40576737                    1_GWF-(1,26623) -4.70483400E-02                     1_GWF-(1,9691)
        114          3         14     -0.41098806                    1_GWF-(1,26649)  4.58345199E-02                     1_GWF-(1,9691)
        115          3         15     -0.60314011                    1_GWF-(1,26648)  3.12792174E-02                     1_GWF-(1,9692)
        116          3         16     -0.52666643                    1_GWF-(1,26665)  3.15691701E-02                     1_GWF-(1,9691)
        117          3         17     -0.42276194                    1_GWF-(1,26674)  1.81849557E-02                     1_GWF-(1,9692)
        118          3         18      0.28576156                    1_GWF-(1,26647)  1.50079457E-02                     1_GWF-(1,9691)
        119          3         19      0.41642847                    1_GWF-(1,26665)  8.18323260E-03                     1_GWF-(1,9692)
        120          3         20      0.40513308                    1_GWF-(1,26674)  6.75203537E-03                     1_GWF-(1,9691)
        121          3         21      0.21602202                    1_GWF-(1,26422) -7.29595656E-03                    1_GWF-(1,16201)
        122          3         22      0.39258634                    1_GWF-(1,26350)  6.09109925E-03                     1_GWF-(1,9692)
        123          3         23      0.40722703                    1_GWF-(1,26422)  9.81816331E-03                     1_GWF-(1,9691)
        124          3         24      0.52554474                    1_GWF-(1,26420)  9.04941661E-03                     1_GWF-(1,9692)
        125          3         25      0.47946634                    1_GWF-(1,26422)  1.03543578E-02                     1_GWF-(1,9691)
        126          3         26      0.50503389                    1_GWF-(1,26420)  6.20222435E-03                     1_GWF-(1,9692)
        127          3         27      0.42546833                    1_GWF-(1,26487) -5.23991019E-03                    1_GWF-(1,16201)
        128          3         28     -0.41529171                    1_GWF-(1,26487)  7.61812025E-03                     1_GWF-(1,9691)
        129          3         29     -0.55738265                    1_GWF-(1,26486)  6.90628163E-03                     1_GWF-(1,9692)
        130          3         30     -0.41707469                    1_GWF-(1,26487)  7.06794143E-03                     1_GWF-(1,9691)
        131          3         31     -0.38823711                    1_GWF-(1,26486)  4.12004563E-03                    1_GWF-(1,11145)
        132          3         32     -0.33255457                    1_GWF-(1,26588)  3.74316154E-03                    1_GWF-(1,11148)
        133          3         33     -0.37766795                    1_GWF-(1,26543)  4.88978161E-03                     1_GWF-(1,9691)
        134          3         34     -0.45260571                    1_GWF-(1,26588)  5.14439910E-03                     1_GWF-(1,9692)
        135          3         35      0.34842067                    1_GWF-(1,26588)  5.37229685E-03                     1_GWF-(1,9691)
        136          3         36      0.27293734                    1_GWF-(1,26665)  4.79598488E-03                    1_GWF-(1,11147)
        137          3         37      0.34614344                    1_GWF-(1,26649)  4.89904584E-03                    1_GWF-(1,11048)
        138          3         38      0.44451527                    1_GWF-(1,26622)  4.03282898E-03                    1_GWF-(1,16201)
        139          3         39     -0.38295505                    1_GWF-(1,26622)  3.88825830E-03                    1_GWF-(1,11133)
        140          3         40     -0.31359555                    1_GWF-(1,26623) -4.04414391E-03                    1_GWF-(1,11149)
        141          3         41     -0.24837475                    1_GWF-(1,26622)  4.05670117E-03                    1_GWF-(1,11047)
        142          3         42     -0.34178765                    1_GWF-(1,26665)  3.43798666E-03                    1_GWF-(1,11152)
        143          3         43     -0.31265636                    1_GWF-(1,26666)  3.72217124E-03                    1_GWF-(1,11135)
        144          3         44     -0.28852316                    1_GWF-(1,26665)  3.55593548E-03                    1_GWF-(1,11058)
        145          3         45      0.29540385                    1_GWF-(1,26665)  4.37334788E-03                    1_GWF-(1,11053)
        146          3         46      0.23878923                    1_GWF-(1,26666) -2.97509448E-03                    1_GWF-(1,11059)
        147          3         47     -0.17452752                    1_GWF-(1,26543) -3.18938623E-03                    1_GWF-(1,11054)
        148          3         48     -0.17070608                    1_GWF-(1,26542)  2.94039450E-03                    1_GWF-(1,10966)
        149          3         49     -0.20172896                    1_GWF-(1,26623)  3.13019620E-03                    1_GWF-(1,11156)
        150          3         50     -0.17078937                    1_GWF-(1,26586)  2.31676956E-03                    1_GWF-(1,11155)
        151          4          1     -0.29880658                    1_GWF-(1,11428) -8.05394146E-03                    1_GWF-(1,10745)
        152          4          2     -0.24967274                    1_GWF-(1,11421) -5.90979771E-03                    1_GWF-(1,15063)
        153          4          3     -0.19669530                    1_GWF-(1,11401)  3.43002851E-03                    1_GWF-(1,15063)
        154          4          4     -0.17588459                    1_GWF-(1,11393)  2.62272382E-03                    1_GWF-(1,15062)
        155          4          5     -0.14586503                    1_GWF-(1,11316)  2.65246837E-03                    1_GWF-(1,15067)
        156          4          6 -9.56766523E-02                    1_GWF-(1,11318)  2.74997400E-03                    1_GWF-(1,15063)
        157          4          7      0.11491109                    1_GWF-(1,11403)  2.79855331E-03                    1_GWF-(1,10651)
        158          4          8     -0.10832397                    1_GWF-(1,26665) -2.61151093E-03                    1_GWF-(1,15062)
        159          4          9      0.11525990                    1_GWF-(1,26665) -2.70555181E-03                    1_GWF-(1,15067)
        160          4         10     -0.14067895                    1_GWF-(1,26665) -2.19413986E-03                    1_GWF-(1,15058)
        161          4         11      0.12150837                    1_GWF-(1,26665) -2.00945921E-03                    1_GWF-(1,15062)
        162          4         12  7.24620473E-02                    1_GWF-(1,26622) -2.29258412E-03                    1_GWF-(1,15067)
        163          4         13 -8.27833321E-02                    1_GWF-(1,26622) -1.75834447E-03                    1_GWF-(1,15058)
        164          4         14  8.14888145E-02                    1_GWF-(1,26622)  8.59331726E-04                    1_GWF-(1,15093)
        165          4         15  5.98041751E-02                    1_GWF-(1,26649)  1.03860217E-03                    1_GWF-(1,15058)
        166          4         16  4.94577378E-02                    1_GWF-(1,26622) -1.24071877E-03                    1_GWF-(1,15058)
        167          4         17 -4.24025689E-02                    1_GWF-(1,26218) -1.21018782E-03                    1_GWF-(1,15079)
        168          4         18 -5.28143915E-02                    1_GWF-(1,26588)  1.29683743E-03                    1_GWF-(1,15069)
        169          4         19 -6.23011264E-02                    1_GWF-(1,26543) -1.22751498E-03                    1_GWF-(1,15058)
        170          4         20 -7.70008817E-02                    1_GWF-(1,26588)  1.02727977E-03                    1_GWF-(1,10961)
        171          4         21 -5.86106942E-02                    1_GWF-(1,26543)  9.25796808E-04                    1_GWF-(1,15069)
        172          4         22 -3.79733567E-02                    1_GWF-(1,26588) -1.02487931E-03                    1_GWF-(1,10961)
        173          4         23 -4.21995005E-02                    1_GWF-(1,26486) -1.11952943E-03                    1_GWF-(1,15079)
        174          4         24 -4.96367015E-02                    1_GWF-(1,26487) -1.06702957E-03                    1_GWF-(1,15078)
        175          4         25 -5.92238048E-02                    1_GWF-(1,26486)  7.60973094E-04                    1_GWF-(1,10959)
        176          4         26 -5.60988466E-02                    1_GWF-(1,26487) -1.14543283E-03                    1_GWF-(1,15079)
        177          4         27 -5.23673068E-02                    1_GWF-(1,26420) -1.43999447E-03                    1_GWF-(1,15078)
        178          4         28 -5.53015016E-02                    1_GWF-(1,26422)  1.38641442E-03                    1_GWF-(1,15078)
        179          4         29 -5.55758101E-02                    1_GWF-(1,26350)  1.13208672E-03                    1_GWF-(1,15083)
        180          4         30 -4.79193543E-02                    1_GWF-(1,26422)  8.64792546E-04                     1_GWF-(1,5697)
        181          4         31  5.77629817E-02                    1_GWF-(1,26422)  1.05423177E-03                    1_GWF-(1,15078)
        182          4         32  4.94620613E-02                    1_GWF-(1,26350)  1.06099047E-03                    1_GWF-(1,15083)
        183          4         33  4.04263155E-02                    1_GWF-(1,26421) -8.79819447E-04                    1_GWF-(1,15083)
        184          4         34  3.14946054E-02                    1_GWF-(1,26350) -8.00165915E-04                    1_GWF-(1,11145)
        185          4         35 -2.68490449E-02                    1_GWF-(1,11459) -7.15394658E-04                    1_GWF-(1,11148)
        186          4         36 -2.55533072E-02                    1_GWF-(1,11365)  9.21162115E-04                     1_GWF-(1,9691)
        187          4         37 -1.69001465E-02                    1_GWF-(1,11366)  9.78993506E-04                     1_GWF-(1,9692)
        188          4         38  2.99069651E-02                    1_GWF-(1,11454)  1.47405197E-03                     1_GWF-(1,9691)
        189          4         39 -1.74162255E-02                    1_GWF-(1,26217)  1.51642573E-03                     1_GWF-(1,9692)
        190          4         40 -1.93000709E-02                    1_GWF-(1,11380)  2.35611094E-03                     1_GWF-(1,9691)
        191          4         41 -1.38481444E-02                    1_GWF-(1,13517) -2.22715282E-03                     1_GWF-(1,9691)
        192          4         42  1.22822817E-02                    1_GWF-(1,11365)  3.09679968E-03                     1_GWF-(1,9691)
        193          4         43 -1.39001549E-02                    1_GWF-(1,11369) -2.93508958E-03                     1_GWF-(1,9691)
        194          4         44  1.20162476E-02                    1_GWF-(1,11453)  3.30801268E-03                     1_GWF-(1,9691)
        195          4         45  1.08309648E-02                    1_GWF-(1,26218) -3.11762731E-03                     1_GWF-(1,9691)
        196          4         46 -7.36159196E-03                    1_GWF-(1,14224)  3.45720848E-03                     1_GWF-(1,9691)
        197          4         47  7.59573123E-03                    1_GWF-(1,11701) -2.85633737E-03                     1_GWF-(1,9691)
        198          4         48  7.03317527E-03                    1_GWF-(1,11454)  3.16948012E-03                     1_GWF-(1,9691)
        199          4         49  7.24313726E-03                    1_GWF-(1,11381) -2.48956045E-03                     1_GWF-(1,9691)
        200          4         50  8.86133824E-03                    1_GWF-(1,11458)  2.61552150E-03                     1_GWF-(1,9691)
        201          5          1 -5.31031160E-02                    1_GWF-(1,11378)  9.82609770E-04                     1_GWF-(1,9692)
        202          5          2 -3.43055527E-02                    1_GWF-(1,11369)  2.88110652E-03                     1_GWF-(1,9691)
        203          5          3 -2.01810749E-02                    1_GWF-(1,11454) -3.08203677E-03                     1_GWF-(1,9691)
        204          5          4  2.02714657E-02                    1_GWF-(1,11367)  2.79137949E-03                     1_GWF-(1,9691)
        205          5          5 -2.21563380E-02                    1_GWF-(1,11373) -2.50596196E-03                     1_GWF-(1,9691)
        206          5          6  1.87802905E-02                    1_GWF-(1,11373)  2.79282028E-03                     1_GWF-(1,9691)
        207          5          7  2.73252168E-02                    1_GWF-(1,11378) -2.09081164E-03                     1_GWF-(1,9691)
        208          5          8  1.95868849E-02                    1_GWF-(1,11368)  1.93923187E-03                     1_GWF-(1,9691)
        209          5          9 -1.56065009E-02                    1_GWF-(1,11368) -1.65411598E-03                     1_GWF-(1,9691)
        210          5         10 -1.70116297E-02                    1_GWF-(1,11451)  1.57420143E-03                     1_GWF-(1,9691)
        211          5         11 -2.29770897E-02                    1_GWF-(1,11378) -9.26739917E-04                     1_GWF-(1,9691)
        212          5         12 -1.87263015E-02                    1_GWF-(1,11368)  8.94881958E-04                     1_GWF-(1,9691)
        213          5         13 -1.60325402E-02                    1_GWF-(1,11451)  5.68530495E-04                     1_GWF-(1,9692)
        214          5         14  1.44914587E-02                    1_GWF-(1,11451)  5.32762077E-04                     1_GWF-(1,9691)
        215          5         15  1.48338019E-02                    1_GWF-(1,11452)  2.99726570E-04                     1_GWF-(1,9692)
        216          5         16  1.15827302E-02                    1_GWF-(1,11368)  2.11487568E-04                     1_GWF-(1,9691)
        217          5         17 -9.82395161E-03                    1_GWF-(1,26487)  1.48337879E-04                    1_GWF-(1,10651)
        218          5         18 -1.16694494E-02                    1_GWF-(1,26486)  1.68608685E-04                     1_GWF-(1,9692)
        219          5         19 -9.89578562E-03                    1_GWF-(1,26588) -3.46363226E-04                    1_GWF-(1,10651)
        220          5         20 -8.67194455E-03                    1_GWF-(1,11415) -2.66184999E-04                    1_GWF-(1,10652)
        221          5         21 -8.53969104E-03                    1_GWF-(1,11454) -2.80397772E-04                    1_GWF-(1,10651)
        222          5         22 -8.86373042E-03                    1_GWF-(1,11452)  1.24818564E-04                    1_GWF-(1,15078)
        223          5         23 -7.83679084E-03                    1_GWF-(1,11415)  9.69734728E-05                    1_GWF-(1,11039)
        224          5         24  7.36722923E-03                    1_GWF-(1,26422)  1.40987723E-04                    1_GWF-(1,11352)
        225          5         25  8.14181220E-03                    1_GWF-(1,26350)  1.12760325E-04                     1_GWF-(1,9692)
        226          5         26  8.50057678E-03                    1_GWF-(1,26486)  1.67351310E-04                     1_GWF-(1,9691)
        227          5         27  6.73733343E-03                    1_GWF-(1,26544)  1.24360244E-04                    1_GWF-(1,10651)
        228          5         28  6.36522283E-03                    1_GWF-(1,26486)  8.18883384E-05                     1_GWF-(1,9691)
        229          5         29  6.19533000E-03                    1_GWF-(1,26622) -1.00225097E-04                    1_GWF-(1,10651)
        230          5         30  5.79003092E-03                    1_GWF-(1,26649) -1.19368701E-04                    1_GWF-(1,10652)
        231          5         31 -5.13000975E-03                    1_GWF-(1,26350)  1.67397494E-04                     1_GWF-(1,9691)
        232          5         32 -5.89400396E-03                    1_GWF-(1,26422)  1.08148651E-04                     1_GWF-(1,9692)
        233          5         33 -5.27232851E-03                    1_GWF-(1,26350)  1.06177406E-04                     1_GWF-(1,9691)
        234          5         34 -4.64575575E-03                    1_GWF-(1,26422)  8.77615969E-05                    1_GWF-(1,10966)
        235          5         35 -5.72880729E-03                    1_GWF-(1,26588)  8.85665367E-05                    1_GWF-(1,10651)
        236          5         36  5.97990445E-03                    1_GWF-(1,26588)  7.57844985E-05                    1_GWF-(1,11352)
        237          5         37 -7.08108080E-03                    1_GWF-(1,26588)  7.89625262E-05                    1_GWF-(1,11351)
        238          5         38 -5.10699074E-03                    1_GWF-(1,26589)  8.80244601E-05                     1_GWF-(1,9691)
        239          5         39 -5.27954595E-03                    1_GWF-(1,26588) -1.00198609E-04                    1_GWF-(1,10651)
        240          5         40 -5.52874575E-03                    1_GWF-(1,26665)  1.05988682E-04                    1_GWF-(1,10651)
        241          5         41  6.28407040E-03                    1_GWF-(1,26665)  1.13666742E-04                    1_GWF-(1,10652)
        242          5         42  6.17189640E-03                    1_GWF-(1,26666)  1.27046770E-04                    1_GWF-(1,10651)
        243          5         43  6.04964021E-03                    1_GWF-(1,26665)  8.89945174E-05                    1_GWF-(1,10651)
        244          5         44 -3.71367708E-03                    1_GWF-(1,26665)  8.30624025E-05                    1_GWF-(1,10652)
        245          5         45  2.72216712E-03                    1_GWF-(1,11294)  1.25145003E-04                    1_GWF-(1,10651)
        246          5         46  3.03891385E-03                    1_GWF-(1,11305)  9.92904511E-05                    1_GWF-(1,10652)
        247          5         47  2.56856622E-03                    1_GWF-(1,11414)  9.75427183E-05                    1_GWF-(1,10651)
        248          5         48  2.71443338E-03                    1_GWF-(1,11413) -1.21773180E-04                    1_GWF-(1,10651)
        249          5         49  2.33511349E-03                    1_GWF-(1,26217)  1.43097649E-04                    1_GWF-(1,10651)
        250          5         50 -2.85384297E-03                     1_GWF-(1,8324)  1.19801394E-04                    1_GWF-(1,10652)
        251          6          1 -5.63847765E-03                    1_GWF-(1,11374)  1.02479735E-04                    1_GWF-(1,10651)
        252          6          2 -2.28803715E-03                    1_GWF-(1,11436) -1.09263227E-04                    1_GWF-(1,10651)
        253          6          3 -2.50914019E-03                    1_GWF-(1,26218)  1.39262583E-04                    1_GWF-(1,10651)
        254          6          4 -2.55970697E-03                    1_GWF-(1,11374)  7.47700826E-05                    1_GWF-(1,10652)
        255          6          5 -2.46573211E-03                    1_GWF-(1,26218)  9.07697026E-05                    1_GWF-(1,10651)
        256          6          6 -2.12530364E-03                    1_GWF-(1,26217)  6.11825237E-05                    1_GWF-(1,10652)
        257          6          7  1.98300570E-03                    1_GWF-(1,11316)  6.24292480E-05                    1_GWF-(1,10651)
        258          6          8 -2.62275996E-03                    1_GWF-(1,26665)  4.50034039E-05                    1_GWF-(1,10651)
        259          6          9 -2.72012042E-03                    1_GWF-(1,26666)  4.65261310E-05                    1_GWF-(1,10652)
        260          6         10 -2.82156964E-03                    1_GWF-(1,26665)  4.26578610E-05                    1_GWF-(1,10651)
        261          6         11  2.05759567E-03                    1_GWF-(1,26665) -5.26925387E-05                    1_GWF-(1,10651)
        262          6         12  1.29917321E-03                    1_GWF-(1,26588) -3.63708969E-05                    1_GWF-(1,10652)
        263          6         13  1.46465407E-03                    1_GWF-(1,26589)  1.73872279E-05                    1_GWF-(1,15188)
        264          6         14  2.22662767E-03                    1_GWF-(1,26588) -2.54504158E-05                    1_GWF-(1,10651)
        265          6         15  1.94693572E-03                    1_GWF-(1,26543) -2.50790121E-05                    1_GWF-(1,14801)
        266          6         16  2.10265017E-03                    1_GWF-(1,26588)  1.97122470E-05                    1_GWF-(1,10966)
        267          6         17  1.19091007E-03                    1_GWF-(1,26543) -2.12237470E-05                    1_GWF-(1,10966)
        268          6         18 -1.15633286E-03                    1_GWF-(1,26422) -2.76884543E-05                    1_GWF-(1,15080)
        269          6         19  1.37997529E-03                    1_GWF-(1,26422) -3.75548047E-05                    1_GWF-(1,10651)
        270          6         20  1.34684054E-03                    1_GWF-(1,26350) -3.07912985E-05                    1_GWF-(1,10652)
        271          6         21  1.20793141E-03                    1_GWF-(1,26422) -3.97107297E-05                    1_GWF-(1,10651)
        272          6         22 -1.40894961E-03                    1_GWF-(1,26622)  1.36993770E-05                    1_GWF-(1,10864)
        273          6         23 -1.51745591E-03                    1_GWF-(1,26649)  2.56833077E-05                    1_GWF-(1,10651)
        274          6         24 -1.50775035E-03                    1_GWF-(1,26544) -4.33917439E-05                    1_GWF-(1,10651)
        275          6         25 -1.69926007E-03                    1_GWF-(1,26486) -3.52406407E-05                    1_GWF-(1,10652)
        276          6         26 -1.62897054E-03                    1_GWF-(1,26350) -2.18623841E-05                    1_GWF-(1,10653)
        277          6         27 -1.42703704E-03                    1_GWF-(1,26422) -1.73309800E-05                    1_GWF-(1,10654)
        278          6         28  1.07638702E-03                    1_GWF-(1,26486) -2.13521463E-05                    1_GWF-(1,10652)
        279          6         29  1.07492213E-03                    1_GWF-(1,26544) -3.05032577E-05                    1_GWF-(1,10651)
        280          6         30  1.36358514E-03                    1_GWF-(1,26486)  2.49665694E-05                    1_GWF-(1,10651)
        281          6         31  1.21911149E-03                    1_GWF-(1,26544) -4.21784759E-05                    1_GWF-(1,10651)
        282          6         32  1.17092176E-03                    1_GWF-(1,26486)  1.69700210E-05                    1_GWF-(1,10653)
        283          6         33  9.65590219E-04                    1_GWF-(1,26487)  1.86016092E-05                    1_GWF-(1,10651)
        284          6         34  9.08094464E-04                    1_GWF-(1,26420)  2.42690222E-05                    1_GWF-(1,10652)
        285          6         35 -6.08114684E-04                    1_GWF-(1,11368) -2.20867596E-05                    1_GWF-(1,10652)
        286          6         36 -5.95289528E-04                    1_GWF-(1,11452)  2.23757921E-05                     1_GWF-(1,9691)
        287          6         37 -4.45795157E-04                    1_GWF-(1,26217)  3.27391514E-05                    1_GWF-(1,10651)
        288          6         38  6.25115723E-04                    1_GWF-(1,11454)  3.17297658E-05                     1_GWF-(1,9691)
        289          6         39  6.11388981E-04                    1_GWF-(1,11368) -3.31001141E-05                     1_GWF-(1,9691)
        290          6         40  5.17408971E-04                    1_GWF-(1,11378)  5.15677827E-05                     1_GWF-(1,9691)
        291          6         41 -5.04032725E-04                    1_GWF-(1,11378) -5.41516015E-05                     1_GWF-(1,9691)
        292          6         42 -4.46508575E-04                    1_GWF-(1,11450)  7.22509223E-05                     1_GWF-(1,9691)
        293          6         43 -4.37505777E-04                    1_GWF-(1,11368) -7.78494334E-05                     1_GWF-(1,9691)
        294          6         44 -4.24777731E-04                    1_GWF-(1,11378)  9.34992513E-05                     1_GWF-(1,9691)
        295          6         45 -3.65621302E-04                    1_GWF-(1,11373) -9.40693570E-05                     1_GWF-(1,9691)
        296          6         46  4.59596100E-04                    1_GWF-(1,11373)  1.13881208E-04                     1_GWF-(1,9691)
        297          6         47 -4.42057957E-04                    1_GWF-(1,11369) -1.08975350E-04                     1_GWF-(1,9691)
        298          6         48  4.49512475E-04                    1_GWF-(1,11451)  1.10979284E-04                     1_GWF-(1,9691)
        299          6         49  6.97906980E-04                    1_GWF-(1,11369) -7.45826115E-05                     1_GWF-(1,9691)
        300          6         50  9.67246840E-04                    1_GWF-(1,11378)  9.77780034E-05                     1_GWF-(1,9691)
        301          7          1 -1.06251917E-03                    1_GWF-(1,11378) -7.58375157E-05                     1_GWF-(1,9691)
        302          7          2 -6.45485743E-04                    1_GWF-(1,11369)  9.43818826E-05                     1_GWF-(1,9691)
        303          7          3 -4.61306316E-04                    1_GWF-(1,11451) -8.91473544E-05                     1_GWF-(1,9691)
        304          7          4  3.38338687E-04                    1_GWF-(1,11369)  9.02649473E-05                     1_GWF-(1,9691)
        305          7          5 -3.99014745E-04                    1_GWF-(1,11373) -7.00616741E-05                     1_GWF-(1,9691)
        306          7          6  3.56674330E-04                    1_GWF-(1,11373)  6.41648790E-05                     1_GWF-(1,9691)
        307          7          7  2.90037097E-04                    1_GWF-(1,11378) -5.09472250E-05                     1_GWF-(1,9691)
        308          7          8 -2.57798558E-04                     1_GWF-(1,8100)  4.64247774E-05                     1_GWF-(1,9691)
        309          7          9  2.53354428E-04                    1_GWF-(1,11373) -3.32311379E-05                     1_GWF-(1,9691)
        310          7         10  2.27276506E-04                    1_GWF-(1,11378)  2.85681516E-05                     1_GWF-(1,9691)
        311          7         11 -2.82009228E-04                    1_GWF-(1,11378)  1.65881976E-05                     1_GWF-(1,9692)
        312          7         12 -2.53944987E-04                    1_GWF-(1,11368)  1.34989180E-05                     1_GWF-(1,9691)
        313          7         13 -2.78123073E-04                    1_GWF-(1,26649)  6.35560475E-06                    1_GWF-(1,10651)
        314          7         14 -3.62791128E-04                    1_GWF-(1,26622)  8.58226806E-06                     1_GWF-(1,9692)
        315          7         15 -3.47134656E-04                    1_GWF-(1,26649)  1.39116690E-05                     1_GWF-(1,9691)
        316          7         16  2.79380974E-04                    1_GWF-(1,11369)  9.57022470E-06                    1_GWF-(1,10653)
        317          7         17  2.12213104E-04                    1_GWF-(1,11454)  8.30598414E-06                     1_GWF-(1,9691)
        318          7         18  2.56895674E-04                    1_GWF-(1,26588)  7.25440300E-06                    1_GWF-(1,10653)
        319          7         19 -3.99252089E-04                    1_GWF-(1,26588) -4.49201716E-06                    1_GWF-(1,10651)
        320          7         20  4.04126745E-04                    1_GWF-(1,26588)  7.87807674E-06                     1_GWF-(1,9691)
        321          7         21 -3.20760235E-04                    1_GWF-(1,26588) -7.31705409E-06                    1_GWF-(1,10654)
        322          7         22  2.00447305E-04                    1_GWF-(1,26588) -8.69433646E-06                    1_GWF-(1,10653)
        323          7         23  1.77943752E-04                    1_GWF-(1,11454)  5.99534455E-06                    1_GWF-(1,10653)
        324          7         24  1.42154034E-04                    1_GWF-(1,26217) -6.88793894E-06                    1_GWF-(1,10653)
        325          7         25  1.90075959E-04                    1_GWF-(1,26421)  3.00446629E-06                    1_GWF-(1,11058)
        326          7         26  1.96347754E-04                    1_GWF-(1,26544)  3.03444107E-06                    1_GWF-(1,10959)
        327          7         27  2.87817331E-04                    1_GWF-(1,26486)  3.57588995E-06                     1_GWF-(1,9691)
        328          7         28  2.33902217E-04                    1_GWF-(1,26487) -3.27608814E-06                    1_GWF-(1,10654)
        329          7         29  2.05611023E-04                    1_GWF-(1,26486) -2.83163823E-06                    1_GWF-(1,10653)
        330          7         30 -1.65101454E-04                    1_GWF-(1,26420)  2.48987169E-06                     1_GWF-(1,9691)
        331          7         31  1.74752169E-04                    1_GWF-(1,26649)  3.75644848E-06                    1_GWF-(1,10961)
        332          7         32 -1.69121045E-04                    1_GWF-(1,26350) -4.53459825E-06                    1_GWF-(1,10653)
        333          7         33 -1.71897652E-04                    1_GWF-(1,26422)  4.46171713E-06                    1_GWF-(1,10653)
        334          7         34  1.71920562E-04                    1_GWF-(1,26422)  3.79369510E-06                    1_GWF-(1,10654)
        335          7         35  1.68298409E-04                    1_GWF-(1,26350)  2.94421886E-06                    1_GWF-(1,10966)
        336          7         36  1.43616618E-04                    1_GWF-(1,26422)  2.29288544E-06                     1_GWF-(1,9691)
        337          7         37 -1.21971758E-04                    1_GWF-(1,26665) -2.13104917E-06                    1_GWF-(1,10961)
        338          7         38 -1.37420350E-04                    1_GWF-(1,26623) -2.13132270E-06                    1_GWF-(1,10481)
        339          7         39 -1.57938590E-04                    1_GWF-(1,26665) -2.94797225E-06                    1_GWF-(1,10653)
        340          7         40  1.35738697E-04                    1_GWF-(1,26665)  2.20731600E-06                    1_GWF-(1,10653)
        341          7         41 -1.32031735E-04                    1_GWF-(1,26350)  2.89635090E-06                     1_GWF-(1,9691)
        342          7         42 -1.36124248E-04                    1_GWF-(1,26422)  2.16379658E-06                    1_GWF-(1,10966)
        343          7         43 -1.22844561E-04                    1_GWF-(1,26350)  3.37339619E-06                    1_GWF-(1,10653)
        344          7         44 -1.05588902E-04                    1_GWF-(1,26422)  2.89694631E-06                    1_GWF-(1,10658)
        345          7         45  7.36827635E-05                    1_GWF-(1,26217)  4.56785187E-06                    1_GWF-(1,10653)
        346          7         46  8.19355671E-05                    1_GWF-(1,26218) -3.17693001E-06                    1_GWF-(1,10653)
        347          7         47  8.68056460E-05                    1_GWF-(1,26422)  4.07950998E-06                    1_GWF-(1,10653)
        348          7         48  8.79591690E-05                    1_GWF-(1,26218) -3.42885623E-06                    1_GWF-(1,10653)
        349          7         49  6.85522534E-05                    1_GWF-(1,26217)  4.71363378E-06                    1_GWF-(1,10653)
        350          7         50  1.06082486E-04                    1_GWF-(1,11936) -4.57543340E-06                    1_GWF-(1,10653)
        351          8          1 -1.05832000E-04                    1_GWF-(1,11936)  4.44762548E-06                    1_GWF-(1,10653)
        352          8          2 -6.58083449E-05                    1_GWF-(1,11436)  3.53718766E-06                    1_GWF-(1,10654)
        353          8          3 -7.83652870E-05                    1_GWF-(1,26218)  3.85243362E-06                    1_GWF-(1,10651)
        354          8          4 -7.39358579E-05                    1_GWF-(1,26422) -2.48333913E-06                    1_GWF-(1,10653)
        355          8          5  5.94115982E-05                    1_GWF-(1,26623)  1.54957929E-06                    1_GWF-(1,10653)
        356          8          6 -6.76312862E-05                    1_GWF-(1,26487)  2.10755897E-06                    1_GWF-(1,10653)
        357          8          7 -6.65229104E-05                    1_GWF-(1,26622)  2.16317630E-06                    1_GWF-(1,10654)
        358          8          8  5.44972887E-05                    1_GWF-(1,26217)  3.59088438E-06                    1_GWF-(1,10653)
        359          8          9  7.07889589E-05                    1_GWF-(1,26218)  1.97029304E-06                    1_GWF-(1,10654)
        360          8         10  6.52575855E-05                    1_GWF-(1,26217) -1.29061943E-06                    1_GWF-(1,10654)
        361          8         11  5.50976945E-05                    1_GWF-(1,26350) -9.67487604E-07                    1_GWF-(1,10651)
        362          8         12  5.54198071E-05                    1_GWF-(1,26422) -7.78457959E-07                    1_GWF-(1,10650)
        363          8         13  5.56376605E-05                    1_GWF-(1,26665) -7.55553257E-07                    1_GWF-(1,10654)
        364          8         14  5.39861505E-05                    1_GWF-(1,26666) -1.40334344E-06                    1_GWF-(1,10653)
        365          8         15  6.22781218E-05                    1_GWF-(1,26665) -6.29919976E-07                    1_GWF-(1,10654)
        366          8         16 -4.66872086E-05                    1_GWF-(1,26420)  8.09421707E-07                    1_GWF-(1,10966)
        367          8         17 -5.01077632E-05                    1_GWF-(1,26487) -8.27361075E-07                    1_GWF-(1,10653)
        368          8         18 -5.55547797E-05                    1_GWF-(1,26486)  9.09812723E-07                    1_GWF-(1,10653)
        369          8         19 -6.11251034E-05                    1_GWF-(1,26622) -8.68504150E-07                    1_GWF-(1,10653)
        370          8         20 -5.73896231E-05                    1_GWF-(1,26623)  9.36118629E-07                    1_GWF-(1,10961)
        371          8         21 -4.87445768E-05                    1_GWF-(1,26622) -6.89883301E-07                    1_GWF-(1,10652)
        372          8         22 -3.99989480E-05                    1_GWF-(1,26623) -9.21614105E-07                    1_GWF-(1,10653)
        373          8         23 -3.79101293E-05                    1_GWF-(1,26422) -1.18689793E-06                    1_GWF-(1,10654)
        374          8         24 -5.03161959E-05                    1_GWF-(1,26350) -1.33381654E-06                    1_GWF-(1,10653)
        375          8         25 -5.33598058E-05                    1_GWF-(1,26422)  9.29761411E-07                    1_GWF-(1,10653)
        376          8         26 -4.70935441E-05                    1_GWF-(1,26350) -7.29168180E-07                    1_GWF-(1,10653)
        377          8         27 -3.43231955E-05                    1_GWF-(1,26422)  5.22834462E-07                    1_GWF-(1,11053)
        378          8         28  3.76433140E-05                    1_GWF-(1,26588) -6.69390019E-07                    1_GWF-(1,10652)
        379          8         29  3.31641931E-05                    1_GWF-(1,26589) -9.25223762E-07                    1_GWF-(1,10650)
        380          8         30  3.89439223E-05                    1_GWF-(1,26588) -9.49136874E-07                    1_GWF-(1,10654)
        381          8         31  3.68769778E-05                    1_GWF-(1,26422) -7.89088029E-07                    1_GWF-(1,10651)
        382          8         32  4.03258436E-05                    1_GWF-(1,26420) -3.60264749E-07                    1_GWF-(1,10650)
        383          8         33  3.26342290E-05                    1_GWF-(1,26421)  7.82768823E-07                    1_GWF-(1,10651)
        384          8         34  2.48357213E-05                    1_GWF-(1,26420) -7.70943983E-07                    1_GWF-(1,10653)
        385          8         35 -1.82989834E-05                    1_GWF-(1,11369)  1.03644785E-06                    1_GWF-(1,10653)
        386          8         36 -1.66041958E-05                    1_GWF-(1,11378)  7.99301575E-07                     1_GWF-(1,9691)
        387          8         37 -1.65002154E-05                    1_GWF-(1,26217)  8.94605529E-07                    1_GWF-(1,10653)
        388          8         38  1.87785966E-05                    1_GWF-(1,11451)  1.09636505E-06                     1_GWF-(1,9691)
        389          8         39  1.46228194E-05                    1_GWF-(1,11368)  1.07419874E-06                     1_GWF-(1,9692)
        390          8         40 -1.32564622E-05                    1_GWF-(1,11368)  1.65115630E-06                     1_GWF-(1,9691)
        391          8         41 -1.43777706E-05                    1_GWF-(1,13489) -1.76003697E-06                     1_GWF-(1,9691)
        392          8         42 -1.41752743E-05                    1_GWF-(1,26586)  2.26092067E-06                     1_GWF-(1,9691)
        393          8         43 -1.96711108E-05                    1_GWF-(1,26623) -1.88367032E-06                     1_GWF-(1,9691)
        394          8         44 -2.36097109E-05                    1_GWF-(1,26622)  9.12519341E-07                     1_GWF-(1,9691)
        395          8         45 -2.10452367E-05                    1_GWF-(1,26649)  8.36741856E-07                     1_GWF-(1,9691)
        396          8         46  1.58069001E-05                    1_GWF-(1,26649) -1.61337149E-06                     1_GWF-(1,9691)
        397          8         47 -1.49319460E-05                    1_GWF-(1,11454)  2.64688151E-06                     1_GWF-(1,9691)
        398          8         48 -1.71736186E-05                    1_GWF-(1,11373) -2.90780356E-06                     1_GWF-(1,9691)
        399          8         49  1.57585639E-05                    1_GWF-(1,11369)  3.06636167E-06                     1_GWF-(1,9691)
        400          8         50  2.76066369E-05                    1_GWF-(1,11378) -3.02047666E-06                     1_GWF-(1,9691)
        401          9          1 -1.79021725E-05                    1_GWF-(1,11378)  4.28990266E-06                     1_GWF-(1,9691)
        402          9          2  1.43735623E-05                    1_GWF-(1,26487) -2.19378572E-06                     1_GWF-(1,9691)
        403          9          3  1.50333541E-05                    1_GWF-(1,11378)  4.48162503E-07                     1_GWF-(1,9692)
        404          9          4  1.69427707E-05                    1_GWF-(1,26487)  2.88724646E-06                     1_GWF-(1,9691)
        405          9          5  1.31881671E-05                    1_GWF-(1,26486) -2.71679299E-06                     1_GWF-(1,9691)
        406          9          6  8.66593244E-06                    1_GWF-(1,11458)  2.38883688E-06                     1_GWF-(1,9691)
        407          9          7 -7.57926575E-06                    1_GWF-(1,23325) -2.01811252E-06                     1_GWF-(1,9691)
        408          9          8 -9.39938563E-06                     1_GWF-(1,8106)  1.76726711E-06                     1_GWF-(1,9691)
        409          9          9  1.04279851E-05                    1_GWF-(1,26622) -9.69817581E-07                     1_GWF-(1,9691)
        410          9         10  1.42924625E-05                    1_GWF-(1,26649) -1.90425423E-07                    1_GWF-(1,10653)
        411          9         11  1.58045999E-05                    1_GWF-(1,26622)  9.08620496E-07                     1_GWF-(1,9691)
        412          9         12 -1.23822179E-05                    1_GWF-(1,26622) -9.88861485E-07                     1_GWF-(1,9691)
        413          9         13 -9.67272743E-06                    1_GWF-(1,26623)  1.03402429E-06                     1_GWF-(1,9691)
        414          9         14 -7.50883908E-06                    1_GWF-(1,26622) -6.21055971E-07                     1_GWF-(1,9691)
        415          9         15 -5.73496904E-06                    1_GWF-(1,26623)  5.57808670E-07                     1_GWF-(1,9691)
        416          9         16 -7.09914973E-06                    1_GWF-(1,26665)  2.94391891E-07                     1_GWF-(1,9692)
        417          9         17 -9.02664997E-06                    1_GWF-(1,26666)  2.05133047E-07                    1_GWF-(1,10652)
        418          9         18 -1.21693403E-05                    1_GWF-(1,26665)  2.21889992E-07                     1_GWF-(1,9691)
        419          9         19  1.33554513E-05                    1_GWF-(1,26665)  3.04675649E-07                     1_GWF-(1,9692)
        420          9         20  9.41032627E-06                    1_GWF-(1,26666)  4.27214996E-07                     1_GWF-(1,9691)
        421          9         21 -8.04838700E-06                    1_GWF-(1,26420)  2.94609116E-07                     1_GWF-(1,9692)
        422          9         22  6.81285297E-06                    1_GWF-(1,26588) -2.79346477E-07                    1_GWF-(1,10651)
        423          9         23 -8.61846349E-06                    1_GWF-(1,26588) -1.43384748E-07                    1_GWF-(1,10632)
        424          9         24 -8.95838524E-06                    1_GWF-(1,26543)  1.11999383E-07                     1_GWF-(1,9692)
        425          9         25 -8.31413940E-06                    1_GWF-(1,26588)  2.19525109E-07                     1_GWF-(1,9691)
        426          9         26  5.87543469E-06                    1_GWF-(1,26350)  1.82355660E-07                    1_GWF-(1,10653)
        427          9         27  5.12736137E-06                    1_GWF-(1,26217) -2.16912183E-07                    1_GWF-(1,10653)
        428          9         28  4.56976691E-06                    1_GWF-(1,26218)  2.18051458E-07                    1_GWF-(1,10651)
        429          9         29  3.79751301E-06                    1_GWF-(1,25467) -1.98961928E-07                    1_GWF-(1,10653)
        430          9         30 -4.13836910E-06                    1_GWF-(1,26217)  1.25062855E-07                     1_GWF-(1,9690)
        431          9         31 -4.18460089E-06                    1_GWF-(1,26218)  9.07375937E-08                     1_GWF-(1,9669)
        432          9         32  4.75129932E-06                    1_GWF-(1,26622)  8.70384328E-08                    1_GWF-(1,11058)
        433          9         33  6.43609710E-06                    1_GWF-(1,26649) -8.11140497E-08                    1_GWF-(1,10966)
        434          9         34  6.24750880E-06                    1_GWF-(1,26622)  1.05018723E-07                    1_GWF-(1,10654)
        435          9         35 -7.22576586E-06                    1_GWF-(1,26622)  7.01553041E-08                    1_GWF-(1,10653)
        436          9         36 -6.38139042E-06                    1_GWF-(1,26623)  7.34923698E-08                    1_GWF-(1,11197)
        437          9         37 -4.73018328E-06                    1_GWF-(1,26622) -1.06175678E-07                    1_GWF-(1,10651)
        438          9         38  4.74645691E-06                    1_GWF-(1,26350)  1.33155199E-07                    1_GWF-(1,10653)
        439          9         39 -5.16742772E-06                    1_GWF-(1,26350) -1.55389844E-07                    1_GWF-(1,10653)
        440          9         40 -5.93632492E-06                    1_GWF-(1,26422)  1.09569590E-07                    1_GWF-(1,10653)
        441          9         41 -5.17914533E-06                    1_GWF-(1,26350)  8.97531592E-08                     1_GWF-(1,9691)
        442          9         42 -5.33698370E-06                    1_GWF-(1,26487)  7.45699649E-08                    1_GWF-(1,10652)
        443          9         43 -6.29511450E-06                    1_GWF-(1,26486)  1.28391662E-07                    1_GWF-(1,10653)
        444          9         44  5.93679926E-06                    1_GWF-(1,26486)  7.92850485E-08                    1_GWF-(1,10658)
        445          9         45 -4.08340747E-06                    1_GWF-(1,26486)  5.29198502E-08                    1_GWF-(1,10653)
        446          9         46  2.81747633E-06                    1_GWF-(1,26422)  5.44813768E-08                    1_GWF-(1,10650)
        447          9         47  3.44632869E-06                    1_GWF-(1,26350) -5.58325150E-08                    1_GWF-(1,10653)
        448          9         48  3.35887472E-06                    1_GWF-(1,26422)  1.09605070E-07                    1_GWF-(1,10653)
        449          9         49  3.23124833E-06                    1_GWF-(1,26218)  1.25943734E-07                    1_GWF-(1,10654)
        450          9         50  2.54310985E-06                    1_GWF-(1,26217)  1.85890573E-07                    1_GWF-(1,10653)
        451         10          1 -3.05426296E-06                    1_GWF-(1,26217) -2.30388891E-07                    1_GWF-(1,10653)
        452         10          2 -3.61650067E-06                    1_GWF-(1,26218)  1.54053524E-07                    1_GWF-(1,10653)
        453         10          3 -3.24459094E-06                    1_GWF-(1,26422)  6.14363609E-08                    1_GWF-(1,10654)
        454         10          4 -2.75851532E-06                    1_GWF-(1,26350) -3.59125875E-08                    1_GWF-(1,11202)
        455         10          5  3.29094351E-06                    1_GWF-(1,26588)  8.30851043E-08                    1_GWF-(1,10653)
        456         10          6 -2.71877002E-06                    1_GWF-(1,26588)  9.61474153E-08                    1_GWF-(1,10654)
        457         10          7  1.80944430E-06                    1_GWF-(1,26420)  1.10265859E-07                    1_GWF-(1,10653)
        458         10          8  2.41942587E-06                    1_GWF-(1,26218)  5.17086662E-08                    1_GWF-(1,10652)
        459         10          9  2.26222386E-06                    1_GWF-(1,26217)  3.86853670E-08                    1_GWF-(1,11197)
        460         10         10  2.02752895E-06                    1_GWF-(1,26350)  4.32235029E-08                    1_GWF-(1,10653)
        461         10         11 -2.07653509E-06                    1_GWF-(1,26665) -6.34602828E-08                    1_GWF-(1,10653)
        462         10         12  2.35637009E-06                    1_GWF-(1,26588) -3.28805181E-08                    1_GWF-(1,11161)
        463         10         13  1.97812286E-06                    1_GWF-(1,26589)  2.55696191E-08                    1_GWF-(1,11196)
        464         10         14  2.09632318E-06                    1_GWF-(1,26623) -6.83427498E-08                    1_GWF-(1,10653)
        465         10         15 -2.26382430E-06                    1_GWF-(1,26422) -4.19528613E-08                    1_GWF-(1,10654)
        466         10         16  1.93797966E-06                    1_GWF-(1,26623) -3.17332079E-08                    1_GWF-(1,10650)
        467         10         17  1.73161106E-06                    1_GWF-(1,26665) -2.97951786E-08                    1_GWF-(1,11197)
        468         10         18 -1.89504329E-06                    1_GWF-(1,26665)  3.25151576E-08                    1_GWF-(1,11197)
        469         10         19 -1.30779442E-06                    1_GWF-(1,26666) -4.02626034E-08                    1_GWF-(1,10653)
        470         10         20 -1.41075832E-06                    1_GWF-(1,26486)  4.00079609E-08                    1_GWF-(1,10653)
        471         10         21  1.48795270E-06                    1_GWF-(1,26486) -3.93100574E-08                    1_GWF-(1,10653)
        472         10         22 -2.00502382E-06                    1_GWF-(1,26486)  2.03784978E-08                    1_GWF-(1,11056)
        473         10         23 -1.72802721E-06                    1_GWF-(1,26487)  2.35160414E-08                    1_GWF-(1,10653)
        474         10         24  1.55031270E-06                    1_GWF-(1,26622) -4.11969894E-08                    1_GWF-(1,10653)
        475         10         25 -1.73937102E-06                    1_GWF-(1,26422) -3.20186837E-08                    1_GWF-(1,10652)
        476         10         26 -1.70008531E-06                    1_GWF-(1,26350) -2.88474645E-08                    1_GWF-(1,11197)
        477         10         27 -1.38807757E-06                    1_GWF-(1,26422)  2.39342908E-08                    1_GWF-(1,11197)
        478         10         28  9.12249048E-07                    1_GWF-(1,26486)  1.97564149E-08                    1_GWF-(1,15187)
        479         11          1  8.06073291E-07                    1_GWF-(1,26420) -1.81354924E-08                    1_GWF-(1,10653)
 --------------------------------------------------------------------------------------------------------------------------------------



 MEMORY MANAGER TOTAL STORAGE BY DATA TYPE, IN MEGABYTES
 -------------------------------
                    ALLOCATED   
 DATA TYPE           MEMORY     
 -------------------------------
 Character        4.66090000E-02
 Logical          4.40000000E-05
 Integer          5.2037920     
 Real             11.901376     
 -------------------------------
 Total            17.151821     
 -------------------------------


 
 Run end date and time (yyyy/mm/dd hh:mm:ss): 2022/04/25 11:39:28
 Elapsed run time:  0.563 Seconds
 Normal termination of simulation.
