                                   MODFLOW 6
                U.S. GEOLOGICAL SURVEY MODULAR HYDROLOGIC MODEL
                            VERSION 6.2.2 07/30/2021

   MODFLOW 6 compiled Jul 31 2021 14:22:53 with IFORT compiler (ver. 19.10.3)

This software has been approved for release by the U.S. Geological 
Survey (USGS). Although the software has been subjected to rigorous 
review, the USGS reserves the right to update the software as needed 
pursuant to further analysis and review. No warranty, expressed or 
implied, is made by the USGS or the U.S. Government as to the 
functionality of the software and related material nor shall the 
fact of release constitute any such warranty. Furthermore, the 
software is released on condition that neither the USGS nor the U.S. 
Government shall be held liable for any damages resulting from its 
authorized or unauthorized use. Also refer to the USGS Water 
Resources Software User Rights Notice for complete use, copyright, 
and distribution information.


System command used to initiate simulation:
mf6

MODFLOW was compiled using uniform precision.

Real Variables
  KIND: 8
  TINY (smallest non-zero value):    2.225074-308
  HUGE (largest value):    1.797693+308
  PRECISION: 15
  BIT SIZE: 64

Integer Variables
  KIND: 4
  HUGE (largest value): 2147483647
  BIT SIZE: 32

Long Integer Variables
  KIND: 8
  HUGE (largest value): 9223372036854775807
  BIT SIZE: 64

Logical Variables
  KIND: 4
  BIT SIZE: 32
 

 OPENED mfsim.nam
 FILE TYPE:NAM   UNIT 1001   STATUS:OLD                 
 FORMAT:FORMATTED              ACCESS:SEQUENTIAL          
 ACTION:READ                

 # File generated by Flopy version 3.3.5 on 06/01/2022 at 13:18:33.

 READING SIMULATION OPTIONS
 END OF SIMULATION OPTIONS

 READING SIMULATION TIMING

 OPENED mfsim.tdis
 FILE TYPE:TDIS   UNIT 1002   STATUS:OLD                 
 FORMAT:FORMATTED              ACCESS:SEQUENTIAL          
 ACTION:READ                


 TDIS -- TEMPORAL DISCRETIZATION PACKAGE,
 VERSION 1 : 11/13/2014 - INPUT READ FROM UNIT 1002
 # File generated by Flopy version 3.3.5 on 06/01/2022 at 13:18:33.
 PROCESSING TDIS OPTIONS
    SIMULATION TIME UNIT IS SECONDS
 END OF TDIS OPTIONS
 PROCESSING TDIS DIMENSIONS
    1 STRESS PERIOD(S) IN SIMULATION
 END OF TDIS DIMENSIONS
 PROCESSING TDIS PERIODDATA


 STRESS PERIOD     LENGTH       TIME STEPS     MULTIPLIER FOR DELT
 ----------------------------------------------------------------------------
        1         4.000000          1                    1.000
 END OF TDIS PERIODDATA
 END OF SIMULATION TIMING

 READING SIMULATION MODELS
    GWF6 model ML will be created as model 1
 END OF SIMULATION MODELS

 READING SIMULATION EXCHANGES
 END OF SIMULATION EXCHANGES

 READING SOLUTIONGROUP

 Creating solution: SLN_1           

 OPENED mfsim.ims
 FILE TYPE:IMS   UNIT 1015   STATUS:OLD                 
 FORMAT:FORMATTED              ACCESS:SEQUENTIAL          
 ACTION:READ                

 END OF SIMULATION SOLUTIONGROUP

 IMS -- ITERATIVE MODEL SOLUTION PACKAGE, VERSION 6, 4/28/2017
         INPUT READ FROM UNIT 1015
 # File generated by Flopy version 3.3.5 on 06/01/2022 at 13:18:33.

 PROCESSING IMS OPTIONS
 END OF IMS OPTIONS

 PROCESSING IMS NONLINEAR
 END OF IMS NONLINEAR DATA
 ***UNDER-RELAXATION WILL NOT BE USED***
 
 ***IMS LINEAR SOLVER WILL BE USED***

 IMSLINEAR -- UNSTRUCTURED LINEAR SOLUTION PACKAGE, VERSION 8, 04/28/2017

 PROCESSING LINEAR DATA
 END OF LINEAR DATA
 
 OUTER ITERATION CONVERGENCE CRITERION    (DVCLOSE) =    0.100000E-04
 MAXIMUM NUMBER OF OUTER ITERATIONS        (MXITER) = 100
 SOLVER PRINTOUT INDEX                     (IPRIMS) = 2
 NONLINEAR ITERATION METHOD            (NONLINMETH) = 0
 LINEAR SOLUTION METHOD                   (LINMETH) = 1

       SOLUTION BY THE        CONJUGATE-GRADIENT       METHOD
 ------------------------------------------------------------------
 MAXIMUM OF 100 CALLS OF SOLUTION ROUTINE
 MAXIMUM OF 50 INTERNAL ITERATIONS PER CALL TO SOLUTION ROUTINE
 LINEAR ACCELERATION METHOD            = CG        
 MATRIX PRECONDITIONING TYPE           = INCOMPLETE LU       
 MATRIX SCALING APPROACH               = NO SCALING          
 MATRIX REORDERING APPROACH            = ORIGINAL ORDERING        
 NUMBER OF ORTHOGONALIZATIONS          = 0
 HEAD CHANGE CRITERION FOR CLOSURE     =    0.10000E-05
 RESIDUAL CHANGE CRITERION FOR CLOSURE =    0.10000E-04
 RESIDUAL CONVERGENCE OPTION           = 1
 RESIDUAL CONVERGENCE NORM             = INFINITY NORM S 
 RELAXATION FACTOR                     =    0.00000E+00



 
    Solving:  Stress period:     1    Time step:     1
 
1
                            STRESS PERIOD NO. 1, LENGTH =   4.000000    
                            -----------------------------------------------
                            NUMBER OF TIME STEPS = 1
                            MULTIPLIER FOR DELT =     1.000
                            INITIAL TIME STEP SIZE =   4.000000    

 SLN_1 OUTER ITERATION SUMMARY
 ----------------------------------------------------------------------------------------------------------
                                OUTER      INNER                    STEP   MAXIMUM CHANGE MODEL-(CELLID) OR
 OUTER ITERATION STEP       ITERATION  ITERATION  MAXIMUM CHANGE SUCCESS             MODEL-PACKAGE-(NUMBER)
 ----------------------------------------------------------------------------------------------------------
 Model                              1         50       27.186629                            1_GWF-(1,26519)
 Model                              2         50      -22.249472                            1_GWF-(1,26519)
 Model                              3         50       1.6549459                            1_GWF-(1,24191)
 Model                              4         50     -0.32684152                             1_GWF-(1,8837)
 Model                              5         50      0.10631232                            1_GWF-(1,23067)
 Model                              6         50 -3.63292721E-02                             1_GWF-(1,8270)
 Model                              7         50  1.11148677E-02                            1_GWF-(1,21473)
 Model                              8         50 -4.20883136E-03                             1_GWF-(1,8261)
 Model                              9         50  1.34895864E-03                            1_GWF-(1,21479)
 Model                             10         50 -4.93365165E-04                             1_GWF-(1,8258)
 Model                             11         50  1.62609768E-04                            1_GWF-(1,21479)
 Model                             12         50 -5.94866462E-05                             1_GWF-(1,8548)
 Model                             13         50  1.95804042E-05                            1_GWF-(1,21481)
 Model                             14          7 -4.58881363E-06                            1_GWF-(1,25387)
 Model                             15          1 -7.81884502E-07       *                    1_GWF-(1,26665)
 ----------------------------------------------------------------------------------------------------------


 15 CALLS TO NUMERICAL SOLUTION IN TIME STEP 1 STRESS PERIOD 1
 658 TOTAL ITERATIONS

 SLN_1 INNER ITERATION SUMMARY
 --------------------------------------------------------------------------------------------------------------------------------------
      TOTAL      OUTER      INNER                                                            MAXIMUM                                   
  ITERATION  ITERATION  ITERATION  MAXIMUM CHANGE      MAXIMUM CHANGE MODEL-(CELLID)        RESIDUAL    MAXIMUM RESIDUAL MODEL-(CELLID)
 --------------------------------------------------------------------------------------------------------------------------------------
          1          1          1      -11.760891                    1_GWF-(1,12785)      0.58878852                    1_GWF-(1,15911)
          2          1          2       5.9165763                    1_GWF-(1,26601)      0.39574383                    1_GWF-(1,15921)
          3          1          3       6.0582896                    1_GWF-(1,26565)      0.35191227                    1_GWF-(1,15940)
          4          1          4       5.5083921                    1_GWF-(1,26510)      0.26859832                    1_GWF-(1,15975)
          5          1          5       4.0327476                    1_GWF-(1,26647)     -0.12386521                    1_GWF-(1,15912)
          6          1          6       4.0200901                    1_GWF-(1,26649) -8.08490039E-02                    1_GWF-(1,15918)
          7          1          7       3.3255657                    1_GWF-(1,26663) -9.73326161E-02                    1_GWF-(1,15948)
          8          1          8       4.3719133                    1_GWF-(1,26665) -9.65119540E-02                    1_GWF-(1,15942)
          9          1          9       4.6594927                    1_GWF-(1,26666) -6.07457437E-02                    1_GWF-(1,15940)
         10          1         10       6.3973768                    1_GWF-(1,26665) -6.07459048E-02                    1_GWF-(1,15948)
         11          1         11       4.2555942                    1_GWF-(1,26666)  6.09536471E-02                    1_GWF-(1,15940)
         12          1         12       3.3011111                    1_GWF-(1,26649)  6.16726308E-02                    1_GWF-(1,15942)
         13          1         13       2.9633255                    1_GWF-(1,26622)  4.34397515E-02                    1_GWF-(1,15940)
         14          1         14      -2.8682308                    1_GWF-(1,26622) -3.53254809E-02                    1_GWF-(1,15921)
         15          1         15      -2.3632880                    1_GWF-(1,26623)  3.63754472E-02                    1_GWF-(1,10652)
         16          1         16      -2.1460540                    1_GWF-(1,26622)  4.17775595E-02                    1_GWF-(1,10650)
         17          1         17      -2.0083844                    1_GWF-(1,26623)  3.10411027E-02                    1_GWF-(1,14799)
         18          1         18      -2.1345529                    1_GWF-(1,26589) -3.46670000E-02                    1_GWF-(1,15941)
         19          1         19      -3.6264518                    1_GWF-(1,26588)  4.22570926E-02                    1_GWF-(1,10966)
         20          1         20      -3.8421442                    1_GWF-(1,26543)  4.48192065E-02                    1_GWF-(1,10650)
         21          1         21      -3.4174299                    1_GWF-(1,26588) -2.92869631E-02                    1_GWF-(1,11194)
         22          1         22      -3.1551469                    1_GWF-(1,26486)  3.35215026E-02                    1_GWF-(1,10652)
         23          1         23      -3.3201199                    1_GWF-(1,26487)  3.39841021E-02                    1_GWF-(1,10650)
         24          1         24      -3.4317071                    1_GWF-(1,26486)  3.24510746E-02                    1_GWF-(1,14799)
         25          1         25      -2.8605505                    1_GWF-(1,26487)  2.55382403E-02                    1_GWF-(1,10955)
         26          1         26       2.5780495                    1_GWF-(1,20913)  3.03522977E-02                    1_GWF-(1,10651)
         27          1         27       2.5130429                    1_GWF-(1,20921)  3.13995208E-02                    1_GWF-(1,15853)
         28          1         28       1.7737822                    1_GWF-(1,26487)  2.24724453E-02                    1_GWF-(1,11180)
         29          1         29       1.6981305                    1_GWF-(1,26420)  2.27114144E-02                    1_GWF-(1,10652)
         30          1         30       1.8017036                    1_GWF-(1,26422)  2.64005774E-02                    1_GWF-(1,10650)
         31          1         31       1.7897895                    1_GWF-(1,26350) -2.11607807E-02                    1_GWF-(1,10966)
         32          1         32       1.6619901                    1_GWF-(1,26422) -2.52064473E-02                    1_GWF-(1,10963)
         33          1         33       1.4180988                    1_GWF-(1,26350) -1.70493007E-02                    1_GWF-(1,10958)
         34          1         34       1.3724845                    1_GWF-(1,26422) -1.69159459E-02                    1_GWF-(1,10965)
         35          1         35       1.0728337                    1_GWF-(1,26350) -2.32723571E-02                    1_GWF-(1,10963)
         36          1         36      0.79112628                    1_GWF-(1,26422) -1.91053371E-02                    1_GWF-(1,10958)
         37          1         37     -0.89762030                    1_GWF-(1,26422) -1.57529763E-02                    1_GWF-(1,10968)
         38          1         38     -0.94892407                    1_GWF-(1,26350) -1.51822015E-02                    1_GWF-(1,11180)
         39          1         39     -0.96970806                    1_GWF-(1,26422)  1.95347890E-02                    1_GWF-(1,15942)
         40          1         40     -0.90088466                    1_GWF-(1,26350) -2.10825929E-02                    1_GWF-(1,15941)
         41          1         41     -0.75559685                    1_GWF-(1,26649)  2.02818944E-02                    1_GWF-(1,15939)
         42          1         42     -0.88702312                    1_GWF-(1,26623)  1.96141529E-02                    1_GWF-(1,15940)
         43          1         43     -0.78324090                    1_GWF-(1,26586) -1.66182140E-02                    1_GWF-(1,15940)
         44          1         44     -0.62744534                    1_GWF-(1,26623) -1.99179253E-02                    1_GWF-(1,15941)
         45          1         45      0.49363562                    1_GWF-(1,26218)  2.23828519E-02                    1_GWF-(1,15941)
         46          1         46     -0.59069366                    1_GWF-(1,20926)  1.61025822E-02                    1_GWF-(1,15940)
         47          1         47     -0.62792814                    1_GWF-(1,20933) -2.20864298E-02                    1_GWF-(1,15940)
         48          1         48     -0.69828326                    1_GWF-(1,21272) -1.86954766E-02                    1_GWF-(1,15941)
         49          1         49     -0.69801182                    1_GWF-(1,21261)  2.05423357E-02                    1_GWF-(1,15941)
         50          1         50     -0.71727748                    1_GWF-(1,26218) -2.16361619E-02                    1_GWF-(1,15941)
         51          2          1      -22.646423                    1_GWF-(1,26519)     -0.16189194                    1_GWF-(1,26458)
         52          2          2      -8.7979162                    1_GWF-(1,26569)  4.60038778E-02                    1_GWF-(1,26458)
         53          2          3      -4.0449219                    1_GWF-(1,26637)  2.53729624E-02                    1_GWF-(1,26516)
         54          2          4      -4.4810721                    1_GWF-(1,26665) -2.02106975E-02                    1_GWF-(1,26458)
         55          2          5      -3.2958028                    1_GWF-(1,26649)  1.75137301E-02                    1_GWF-(1,26458)
         56          2          6      -2.6207903                    1_GWF-(1,26589)  1.06497699E-02                    1_GWF-(1,26516)
         57          2          7      -2.3314519                    1_GWF-(1,26543) -1.07440196E-02                    1_GWF-(1,15940)
         58          2          8      -2.0678975                    1_GWF-(1,26486)  1.23007448E-02                    1_GWF-(1,15940)
         59          2          9      -1.5992597                    1_GWF-(1,26487)  1.05908962E-02                     1_GWF-(1,9291)
         60          2         10      -1.4661303                    1_GWF-(1,26350)  1.05721170E-02                     1_GWF-(1,9290)
         61          2         11      -1.2185425                    1_GWF-(1,26422)  1.05287951E-02                     1_GWF-(1,9290)
         62          2         12     -0.98202439                    1_GWF-(1,26217)  1.04718206E-02                     1_GWF-(1,9290)
         63          2         13     -0.84279643                    1_GWF-(1,26218)  1.04058031E-02                     1_GWF-(1,9290)
         64          2         14     -0.60915856                    1_GWF-(1,26649)  1.03101153E-02                     1_GWF-(1,9290)
         65          2         15     -0.70748314                    1_GWF-(1,26622)  1.01424745E-02                     1_GWF-(1,9290)
         66          2         16     -0.81107133                    1_GWF-(1,25515)  9.93953915E-03                     1_GWF-(1,9290)
         67          2         17       1.1514680                    1_GWF-(1,26350) -9.90487408E-03                    1_GWF-(1,15940)
         68          2         18       1.0645378                    1_GWF-(1,26217)  9.70355443E-03                     1_GWF-(1,9290)
         69          2         19      0.90553973                    1_GWF-(1,26218)  9.66859113E-03                     1_GWF-(1,9290)
         70          2         20     -0.58050660                    1_GWF-(1,26588)  9.64593975E-03                     1_GWF-(1,9290)
         71          2         21       1.1063537                    1_GWF-(1,26588)  9.61574293E-03                     1_GWF-(1,9290)
         72          2         22       1.4879819                    1_GWF-(1,26543)  9.44504098E-03                     1_GWF-(1,9290)
         73          2         23      0.89120224                    1_GWF-(1,26542)  9.12422336E-03                     1_GWF-(1,9291)
         74          2         24     -0.88696690                    1_GWF-(1,26422)  8.76018819E-03                     1_GWF-(1,9290)
         75          2         25      -1.1860656                    1_GWF-(1,26486)  8.39796073E-03                     1_GWF-(1,9291)
         76          2         26      -1.3248783                    1_GWF-(1,26487)  8.10608997E-03                     1_GWF-(1,9290)
         77          2         27     -0.92503424                    1_GWF-(1,26420)  7.87208789E-03                     1_GWF-(1,9291)
         78          2         28     -0.48607422                    1_GWF-(1,26543)  7.71147874E-03                     1_GWF-(1,9291)
         79          2         29     -0.47474609                    1_GWF-(1,26327)  7.57687658E-03                     1_GWF-(1,9290)
         80          2         30      0.39235263                    1_GWF-(1,26420)  8.92181706E-03                    1_GWF-(1,15941)
         81          2         31     -0.39970330                    1_GWF-(1,26184)  1.38239693E-02                    1_GWF-(1,15940)
         82          2         32     -0.41692205                    1_GWF-(1,26672)  1.81438261E-02                    1_GWF-(1,15941)
         83          2         33     -0.46924401                    1_GWF-(1,26156)  2.36180638E-02                    1_GWF-(1,15940)
         84          2         34     -0.46290594                    1_GWF-(1,25790) -2.72122972E-02                    1_GWF-(1,15940)
         85          2         35      0.66369685                    1_GWF-(1,26422) -2.75794657E-02                    1_GWF-(1,15941)
         86          2         36      0.57470226                    1_GWF-(1,26350) -2.06489272E-02                    1_GWF-(1,15940)
         87          2         37     -0.56759026                    1_GWF-(1,26350) -1.09424289E-02                    1_GWF-(1,15941)
         88          2         38      0.62360365                    1_GWF-(1,26350) -7.05720908E-03                    1_GWF-(1,26625)
         89          2         39      0.59057828                    1_GWF-(1,26422) -1.17634845E-02                    1_GWF-(1,15940)
         90          2         40     -0.53919875                    1_GWF-(1,26422)  1.94662845E-02                    1_GWF-(1,15940)
         91          2         41      0.40870486                    1_GWF-(1,20977) -2.12958614E-02                    1_GWF-(1,15940)
         92          2         42      0.29994288                    1_GWF-(1,21288)  2.42883097E-02                    1_GWF-(1,15940)
         93          2         43      0.31973757                    1_GWF-(1,21283) -2.28787172E-02                    1_GWF-(1,15940)
         94          2         44      0.33837836                    1_GWF-(1,21271)  2.44022898E-02                    1_GWF-(1,15940)
         95          2         45      0.34066378                    1_GWF-(1,20578) -2.47159677E-02                    1_GWF-(1,15940)
         96          2         46      0.37895888                    1_GWF-(1,20582) -2.22678160E-02                    1_GWF-(1,15941)
         97          2         47      0.39488984                    1_GWF-(1,20570) -1.89729106E-02                    1_GWF-(1,15940)
         98          2         48     -0.30073332                    1_GWF-(1,26422) -1.42031880E-02                    1_GWF-(1,15941)
         99          2         49     -0.30333463                    1_GWF-(1,20996)  1.15571176E-02                    1_GWF-(1,10652)
        100          2         50     -0.34663083                    1_GWF-(1,20983)  9.28414280E-03                    1_GWF-(1,10651)
        101          3          1      0.21448234                    1_GWF-(1,26673) -5.26238104E-02                    1_GWF-(1,11430)
        102          3          2      0.26729672                    1_GWF-(1,26672)  9.55338762E-03                    1_GWF-(1,10651)
        103          3          3     -0.24350174                    1_GWF-(1,26672)  5.03333152E-02                    1_GWF-(1,11430)
        104          3          4      0.24877228                    1_GWF-(1,26350) -4.00349231E-02                    1_GWF-(1,11430)
        105          3          5     -0.31457268                    1_GWF-(1,20616)  1.24912145E-02                    1_GWF-(1,11430)
        106          3          6     -0.23505295                    1_GWF-(1,20609)  1.72201927E-02                    1_GWF-(1,11430)
        107          3          7     -0.19059978                    1_GWF-(1,26674) -2.74651215E-02                    1_GWF-(1,11430)
        108          3          8     -0.23608534                    1_GWF-(1,26663)  1.78050943E-02                    1_GWF-(1,11430)
        109          3          9      0.17986508                    1_GWF-(1,20700)  6.77424267E-03                    1_GWF-(1,10652)
        110          3         10      0.21080792                    1_GWF-(1,20699) -1.89441455E-02                    1_GWF-(1,11430)
        111          3         11      0.23500717                    1_GWF-(1,20596)  1.73698292E-02                    1_GWF-(1,11430)
        112          3         12     -0.25257862                    1_GWF-(1,26422) -5.54243557E-03                    1_GWF-(1,11430)
        113          3         13      0.21048137                    1_GWF-(1,26422) -7.80781257E-03                    1_GWF-(1,11430)
        114          3         14      0.23549945                    1_GWF-(1,26350)  1.32651458E-02                    1_GWF-(1,11430)
        115          3         15     -0.28610198                    1_GWF-(1,26350) -7.78434622E-03                    1_GWF-(1,11430)
        116          3         16     -0.27147569                    1_GWF-(1,26422) -4.70564315E-03                    1_GWF-(1,11430)
        117          3         17      0.23188588                    1_GWF-(1,20913)  1.20638048E-02                    1_GWF-(1,11430)
        118          3         18     -0.19728769                    1_GWF-(1,26672) -8.14875842E-03                    1_GWF-(1,11430)
        119          3         19     -0.18453561                    1_GWF-(1,20122)  5.92169585E-03                    1_GWF-(1,14801)
        120          3         20     -0.20021971                    1_GWF-(1,20911)  6.61766016E-03                    1_GWF-(1,11430)
        121          3         21     -0.19120594                    1_GWF-(1,20919) -7.63844410E-03                    1_GWF-(1,11430)
        122          3         22     -0.19456708                    1_GWF-(1,20229)  5.35539730E-03                    1_GWF-(1,14800)
        123          3         23     -0.13929089                    1_GWF-(1,20571)  5.11456820E-03                    1_GWF-(1,14801)
        124          3         24      0.22287510                    1_GWF-(1,26486) -5.72297028E-03                    1_GWF-(1,11430)
        125          3         25      0.25741784                    1_GWF-(1,26487)  2.79987686E-03                    1_GWF-(1,10650)
        126          3         26      0.19138169                    1_GWF-(1,26486)  4.37141660E-03                    1_GWF-(1,11430)
        127          3         27      0.11698331                    1_GWF-(1,26422) -4.95750424E-03                    1_GWF-(1,11430)
        128          3         28     -0.18522186                    1_GWF-(1,26588)  5.79231111E-03                    1_GWF-(1,14801)
        129          3         29     -0.27655735                    1_GWF-(1,26543)  4.51981640E-03                    1_GWF-(1,14800)
        130          3         30     -0.23048700                    1_GWF-(1,26588) -3.30291527E-03                    1_GWF-(1,11430)
        131          3         31      0.17642811                    1_GWF-(1,26588)  4.49354662E-03                    1_GWF-(1,14801)
        132          3         32     -0.10099770                    1_GWF-(1,26588)  5.82819078E-03                    1_GWF-(1,14800)
        133          3         33     -0.11730461                    1_GWF-(1,26422)  5.61396935E-03                    1_GWF-(1,14801)
        134          3         34      0.13955023                    1_GWF-(1,26622) -4.76989531E-03                    1_GWF-(1,14801)
        135          3         35     -0.12648309                    1_GWF-(1,26622)  2.99455672E-03                    1_GWF-(1,11430)
        136          3         36      0.12526334                    1_GWF-(1,26622) -2.93401224E-03                    1_GWF-(1,14800)
        137          3         37      0.12073253                    1_GWF-(1,26649) -4.55130587E-03                    1_GWF-(1,14801)
        138          3         38  9.85235224E-02                    1_GWF-(1,26622) -4.24366961E-03                    1_GWF-(1,14800)
        139          3         39 -8.70234549E-02                    1_GWF-(1,26666)  2.81981138E-03                    1_GWF-(1,14800)
        140          3         40     -0.14531026                    1_GWF-(1,26665)  1.60737742E-03                     1_GWF-(1,9290)
        141          3         41     -0.10963942                    1_GWF-(1,26666)  2.20169636E-03                    1_GWF-(1,14801)
        142          3         42     -0.10525343                    1_GWF-(1,26665) -4.53558222E-03                    1_GWF-(1,14801)
        143          3         43 -7.89891387E-02                    1_GWF-(1,26217) -5.53796724E-03                    1_GWF-(1,14800)
        144          3         44  8.80660545E-02                    1_GWF-(1,26588) -6.59730939E-03                    1_GWF-(1,14801)
        145          3         45  8.92015429E-02                    1_GWF-(1,26649) -7.59952732E-03                    1_GWF-(1,14800)
        146          3         46      0.11043742                    1_GWF-(1,26648) -9.90996968E-03                    1_GWF-(1,14801)
        147          3         47  8.26890575E-02                    1_GWF-(1,26443) -9.61558262E-03                    1_GWF-(1,14800)
        148          3         48  9.10109704E-02                    1_GWF-(1,26453) -9.86188436E-03                    1_GWF-(1,14801)
        149          3         49     -0.11429182                    1_GWF-(1,26648)  9.83433900E-03                    1_GWF-(1,14801)
        150          3         50     -0.12664585                    1_GWF-(1,26463) -1.12337183E-02                    1_GWF-(1,14801)
        151          4          1 -6.92791027E-02                    1_GWF-(1,26217) -9.36541361E-03                    1_GWF-(1,15910)
        152          4          2 -6.46763726E-02                    1_GWF-(1,26218) -1.02230435E-02                    1_GWF-(1,14801)
        153          4          3 -7.38785558E-02                    1_GWF-(1,26217) -1.03418647E-02                    1_GWF-(1,14800)
        154          4          4 -6.90469981E-02                    1_GWF-(1,26218) -1.05277405E-02                    1_GWF-(1,14801)
        155          4          5 -6.38613432E-02                    1_GWF-(1,26217) -1.03081001E-02                    1_GWF-(1,14800)
        156          4          6 -7.57023944E-02                    1_GWF-(1,26218) -9.56400678E-03                    1_GWF-(1,14801)
        157          4          7 -5.60609598E-02                    1_GWF-(1,26217) -7.73731980E-03                    1_GWF-(1,14800)
        158          4          8 -4.98825520E-02                    1_GWF-(1,20203) -6.83024706E-03                    1_GWF-(1,14801)
        159          4          9 -5.01275270E-02                    1_GWF-(1,26666) -4.94368043E-03                    1_GWF-(1,14800)
        160          4         10 -5.36796122E-02                    1_GWF-(1,26665) -3.37806813E-03                    1_GWF-(1,14801)
        161          4         11  8.08421951E-02                    1_GWF-(1,26665) -1.66729746E-03                    1_GWF-(1,15916)
        162          4         12  6.45663988E-02                    1_GWF-(1,26666) -2.31811501E-03                    1_GWF-(1,14800)
        163          4         13  5.63117862E-02                    1_GWF-(1,26665) -4.29101211E-03                    1_GWF-(1,14801)
        164          4         14  4.91760491E-02                    1_GWF-(1,26622) -4.42910433E-03                    1_GWF-(1,14800)
        165          4         15  5.76488221E-02                    1_GWF-(1,26649) -3.22398834E-03                    1_GWF-(1,14801)
        166          4         16  6.90819526E-02                    1_GWF-(1,26622) -1.86544468E-03                    1_GWF-(1,15896)
        167          4         17 -8.30573150E-02                    1_GWF-(1,26622) -2.77699832E-03                    1_GWF-(1,14800)
        168          4         18 -6.50922405E-02                    1_GWF-(1,26623)  4.02923677E-03                    1_GWF-(1,14800)
        169          4         19  5.36922999E-02                    1_GWF-(1,20135)  4.62995922E-03                    1_GWF-(1,14801)
        170          4         20 -6.88884293E-02                    1_GWF-(1,26588)  3.55107224E-03                    1_GWF-(1,14800)
        171          4         21 -7.59779785E-02                    1_GWF-(1,26543) -1.74147885E-03                    1_GWF-(1,15584)
        172          4         22 -8.88798422E-02                    1_GWF-(1,26588)  1.63847919E-03                    1_GWF-(1,14801)
        173          4         23  7.65963233E-02                    1_GWF-(1,26588) -3.33748770E-03                    1_GWF-(1,14801)
        174          4         24 -7.24383188E-02                    1_GWF-(1,20163) -4.01489343E-03                    1_GWF-(1,14800)
        175          4         25 -5.53765778E-02                    1_GWF-(1,20496) -3.43908089E-03                    1_GWF-(1,14801)
        176          4         26  6.26742644E-02                    1_GWF-(1,26486)  1.41188300E-03                    1_GWF-(1,15585)
        177          4         27  7.16736773E-02                    1_GWF-(1,26487)  1.62022890E-03                    1_GWF-(1,14801)
        178          4         28 -6.20566408E-02                    1_GWF-(1,26487)  3.80404769E-03                    1_GWF-(1,14800)
        179          4         29  5.02633871E-02                    1_GWF-(1,20208)  4.98804534E-03                    1_GWF-(1,14801)
        180          4         30  6.15031093E-02                    1_GWF-(1,20231)  5.48092962E-03                    1_GWF-(1,14800)
        181          4         31  6.15336268E-02                    1_GWF-(1,20919)  5.72944115E-03                    1_GWF-(1,14801)
        182          4         32  4.11274995E-02                    1_GWF-(1,20196)  5.64304205E-03                    1_GWF-(1,14800)
        183          4         33  4.58840350E-02                    1_GWF-(1,20208)  6.23936063E-03                    1_GWF-(1,14801)
        184          4         34  4.29335142E-02                    1_GWF-(1,20209)  6.51964312E-03                    1_GWF-(1,14800)
        185          4         35 -4.98452397E-02                    1_GWF-(1,26350)  6.60241024E-03                    1_GWF-(1,14801)
        186          4         36 -6.62080320E-02                    1_GWF-(1,26422)  5.07283957E-03                    1_GWF-(1,14800)
        187          4         37 -6.63478190E-02                    1_GWF-(1,26350)  3.38348321E-03                    1_GWF-(1,14801)
        188          4         38 -6.40658448E-02                    1_GWF-(1,26422) -1.49889134E-03                    1_GWF-(1,15604)
        189          4         39 -5.73590628E-02                    1_GWF-(1,20205)  1.62722040E-03                    1_GWF-(1,10650)
        190          4         40 -4.73051895E-02                    1_GWF-(1,20213)  3.42758106E-03                    1_GWF-(1,14801)
        191          4         41 -5.13706824E-02                    1_GWF-(1,20571)  4.94050382E-03                    1_GWF-(1,14800)
        192          4         42 -4.26037211E-02                    1_GWF-(1,20580)  5.61425822E-03                    1_GWF-(1,14801)
        193          4         43  3.53253494E-02                    1_GWF-(1,26486)  5.44326925E-03                    1_GWF-(1,14800)
        194          4         44  3.53337647E-02                    1_GWF-(1,26420)  6.04198950E-03                    1_GWF-(1,14801)
        195          4         45  4.03594287E-02                    1_GWF-(1,26218)  5.56059418E-03                    1_GWF-(1,14800)
        196          4         46  3.66889681E-02                    1_GWF-(1,20609)  5.18402737E-03                    1_GWF-(1,14801)
        197          4         47  3.14799469E-02                    1_GWF-(1,20738)  4.54077613E-03                    1_GWF-(1,14800)
        198          4         48  2.91464058E-02                    1_GWF-(1,21427)  3.99887449E-03                    1_GWF-(1,14801)
        199          4         49  2.83159450E-02                    1_GWF-(1,20697)  3.39428188E-03                    1_GWF-(1,14800)
        200          4         50  2.61503404E-02                    1_GWF-(1,20950)  3.16580124E-03                    1_GWF-(1,14801)
        201          5          1 -1.46449244E-02                    1_GWF-(1,26217)  3.02476083E-03                    1_GWF-(1,14800)
        202          5          2 -2.28396623E-02                    1_GWF-(1,26218)  3.40594559E-03                    1_GWF-(1,14801)
        203          5          3  2.01503226E-02                    1_GWF-(1,21339)  3.81830239E-03                    1_GWF-(1,14800)
        204          5          4 -2.10397270E-02                    1_GWF-(1,20744)  4.42640625E-03                    1_GWF-(1,14801)
        205          5          5 -2.69091940E-02                    1_GWF-(1,20230)  4.68302263E-03                    1_GWF-(1,14800)
        206          5          6 -2.48795299E-02                    1_GWF-(1,26218)  5.06292368E-03                    1_GWF-(1,14801)
        207          5          7 -1.79415807E-02                    1_GWF-(1,20578)  4.51970133E-03                    1_GWF-(1,14800)
        208          5          8 -1.65189977E-02                    1_GWF-(1,26421)  4.24487128E-03                    1_GWF-(1,14801)
        209          5          9  2.10818127E-02                    1_GWF-(1,20580)  3.43221340E-03                    1_GWF-(1,14800)
        210          5         10  2.45345489E-02                    1_GWF-(1,20571)  2.67891947E-03                    1_GWF-(1,14801)
        211          5         11  2.19196329E-02                    1_GWF-(1,20594)  1.61549626E-03                    1_GWF-(1,14800)
        212          5         12  2.55114659E-02                    1_GWF-(1,26350)  9.71158765E-04                    1_GWF-(1,10629)
        213          5         13  3.61158826E-02                    1_GWF-(1,26422)  1.47696109E-03                    1_GWF-(1,10650)
        214          5         14  3.73474024E-02                    1_GWF-(1,26350)  2.04665428E-03                    1_GWF-(1,14800)
        215          5         15  3.50814718E-02                    1_GWF-(1,26422)  2.68764187E-03                    1_GWF-(1,14801)
        216          5         16  2.69902720E-02                    1_GWF-(1,26350)  2.61689826E-03                    1_GWF-(1,14800)
        217          5         17  1.92096558E-02                    1_GWF-(1,26422)  2.50229653E-03                    1_GWF-(1,14801)
        218          5         18 -1.34733960E-02                    1_GWF-(1,20185)  2.14367412E-03                    1_GWF-(1,14800)
        219          5         19 -1.44938681E-02                    1_GWF-(1,20199)  1.92717253E-03                    1_GWF-(1,14801)
        220          5         20 -2.08955153E-02                    1_GWF-(1,20916)  1.71293866E-03                    1_GWF-(1,14800)
        221          5         21 -2.38374210E-02                    1_GWF-(1,20231)  1.44219074E-03                    1_GWF-(1,14801)
        222          5         22 -1.84065052E-02                    1_GWF-(1,26487)  1.43233708E-03                    1_GWF-(1,10650)
        223          5         23 -2.04330409E-02                    1_GWF-(1,26486)  6.12754517E-04                    1_GWF-(1,10629)
        224          5         24 -2.46735994E-02                    1_GWF-(1,26487)  3.31320521E-04                    1_GWF-(1,14801)
        225          5         25 -2.23844344E-02                    1_GWF-(1,26486)  1.05607733E-03                    1_GWF-(1,10650)
        226          5         26 -1.72834430E-02                    1_GWF-(1,26487) -1.20978532E-03                    1_GWF-(1,10650)
        227          5         27  1.60580003E-02                    1_GWF-(1,20163)  1.28769216E-03                    1_GWF-(1,10650)
        228          5         28 -1.57926210E-02                    1_GWF-(1,26588) -7.80311078E-04                    1_GWF-(1,10650)
        229          5         29 -2.07693531E-02                    1_GWF-(1,26543) -2.96820256E-04                    1_GWF-(1,15584)
        230          5         30 -1.94651432E-02                    1_GWF-(1,26588)  6.90269043E-04                    1_GWF-(1,10650)
        231          5         31  1.92101757E-02                    1_GWF-(1,26588) -1.14711067E-03                    1_GWF-(1,10650)
        232          5         32  1.09640162E-02                    1_GWF-(1,26543)  8.72336107E-04                    1_GWF-(1,10650)
        233          5         33  1.54222787E-02                    1_GWF-(1,26623) -5.99298897E-04                    1_GWF-(1,10650)
        234          5         34  1.97513112E-02                    1_GWF-(1,26622) -2.67325635E-04                    1_GWF-(1,15896)
        235          5         35 -1.56752042E-02                    1_GWF-(1,26622)  6.01820662E-04                    1_GWF-(1,10650)
        236          5         36 -1.22317380E-02                    1_GWF-(1,26649) -8.28230200E-04                    1_GWF-(1,10650)
        237          5         37 -8.61237509E-03                    1_GWF-(1,26622) -7.69460188E-04                    1_GWF-(1,14801)
        238          5         38 -1.03953935E-02                    1_GWF-(1,26665) -5.22030408E-04                    1_GWF-(1,14800)
        239          5         39 -1.18616577E-02                    1_GWF-(1,26666) -3.56897778E-04                    1_GWF-(1,10650)
        240          5         40 -1.39605523E-02                    1_GWF-(1,26665) -4.93015673E-04                    1_GWF-(1,10629)
        241          5         41  1.03043866E-02                    1_GWF-(1,26665) -8.31803229E-04                    1_GWF-(1,10650)
        242          5         42  7.67498305E-03                    1_GWF-(1,26666) -9.51996157E-04                    1_GWF-(1,14801)
        243          5         43 -8.52716719E-03                    1_GWF-(1,26217) -1.11245559E-03                    1_GWF-(1,14800)
        244          5         44  8.79246029E-03                    1_GWF-(1,20584) -1.35850119E-03                    1_GWF-(1,14801)
        245          5         45  9.87842251E-03                    1_GWF-(1,20916) -1.44400178E-03                    1_GWF-(1,14800)
        246          5         46  1.03535611E-02                    1_GWF-(1,20915) -1.51794872E-03                    1_GWF-(1,14801)
        247          5         47  1.03801251E-02                    1_GWF-(1,26218) -1.51423593E-03                    1_GWF-(1,14800)
        248          5         48  1.20646430E-02                    1_GWF-(1,26217) -1.54572876E-03                    1_GWF-(1,14801)
        249          5         49  1.22495179E-02                    1_GWF-(1,26218) -1.12352008E-03                    1_GWF-(1,14800)
        250          5         50 -1.71712905E-02                    1_GWF-(1,20230)  2.11764370E-03                    1_GWF-(1,15910)
        251          6          1 -9.44676605E-03                    1_GWF-(1,26217) -9.95828780E-04                    1_GWF-(1,14800)
        252          6          2 -1.05459039E-02                    1_GWF-(1,26218) -1.30360483E-03                    1_GWF-(1,14801)
        253          6          3 -1.05887823E-02                    1_GWF-(1,26217)  1.19321512E-03                    1_GWF-(1,14801)
        254          6          4 -8.84659305E-03                    1_GWF-(1,26218) -1.25467418E-03                    1_GWF-(1,14801)
        255          6          5 -6.78515514E-03                    1_GWF-(1,26217) -1.14750127E-03                    1_GWF-(1,14800)
        256          6          6 -7.49417779E-03                    1_GWF-(1,20909) -1.03108860E-03                    1_GWF-(1,14801)
        257          6          7  4.97197562E-03                    1_GWF-(1,26218) -8.13006081E-04                    1_GWF-(1,14800)
        258          6          8  5.50388170E-03                    1_GWF-(1,26217) -6.48642357E-04                    1_GWF-(1,14801)
        259          6          9  4.74066910E-03                    1_GWF-(1,26218) -4.69851167E-04                    1_GWF-(1,14800)
        260          6         10 -5.96860966E-03                    1_GWF-(1,26665) -3.46179016E-04                    1_GWF-(1,10629)
        261          6         11  8.09657199E-03                    1_GWF-(1,26665) -3.80456900E-04                    1_GWF-(1,10650)
        262          6         12 -8.85356483E-03                    1_GWF-(1,26665) -2.76604157E-04                    1_GWF-(1,14800)
        263          6         13 -6.97545286E-03                    1_GWF-(1,26666) -4.25969372E-04                    1_GWF-(1,14801)
        264          6         14  5.07360895E-03                    1_GWF-(1,26648) -4.21454556E-04                    1_GWF-(1,14800)
        265          6         15  7.99822352E-03                    1_GWF-(1,26649)  4.21774955E-04                    1_GWF-(1,10650)
        266          6         16  9.61148144E-03                    1_GWF-(1,26622) -2.80884232E-04                    1_GWF-(1,10650)
        267          6         17 -9.89968978E-03                    1_GWF-(1,26622)  2.50574661E-04                    1_GWF-(1,14801)
        268          6         18 -8.44962293E-03                    1_GWF-(1,26623)  4.23437579E-04                    1_GWF-(1,14800)
        269          6         19  5.88399658E-03                    1_GWF-(1,20131) -6.53636822E-04                    1_GWF-(1,10650)
        270          6         20 -8.89417027E-03                    1_GWF-(1,26588)  5.54339141E-04                    1_GWF-(1,10650)
        271          6         21 -8.83441522E-03                    1_GWF-(1,26543) -2.45082667E-04                    1_GWF-(1,10650)
        272          6         22  9.58277794E-03                    1_GWF-(1,26543)  2.11547904E-04                    1_GWF-(1,14801)
        273          6         23  7.68142358E-03                    1_GWF-(1,26588)  5.71324027E-04                    1_GWF-(1,10650)
        274          6         24 -7.15460707E-03                    1_GWF-(1,20163) -7.22399078E-04                    1_GWF-(1,10650)
        275          6         25  7.08101136E-03                    1_GWF-(1,26487)  7.07247686E-04                    1_GWF-(1,10650)
        276          6         26  8.80804529E-03                    1_GWF-(1,26486) -2.78573086E-04                    1_GWF-(1,10650)
        277          6         27  9.19124933E-03                    1_GWF-(1,26487) -1.83502977E-04                    1_GWF-(1,10650)
        278          6         28  7.51101086E-03                    1_GWF-(1,26486)  6.64822770E-04                    1_GWF-(1,10650)
        279          6         29  6.32810296E-03                    1_GWF-(1,20210) -6.53866677E-04                    1_GWF-(1,10650)
        280          6         30  7.32816649E-03                    1_GWF-(1,20227)  9.03675174E-04                    1_GWF-(1,10650)
        281          6         31  7.02024820E-03                    1_GWF-(1,20918) -5.72069618E-04                    1_GWF-(1,10650)
        282          6         32  5.41265643E-03                    1_GWF-(1,21261)  7.42830190E-04                    1_GWF-(1,10650)
        283          6         33  4.11974519E-03                    1_GWF-(1,20219)  5.86828568E-04                    1_GWF-(1,14801)
        284          6         34  4.59239619E-03                    1_GWF-(1,20216)  6.14760645E-04                    1_GWF-(1,14800)
        285          6         35 -6.04166922E-03                    1_GWF-(1,26350)  6.18413787E-04                    1_GWF-(1,14801)
        286          6         36 -8.25733679E-03                    1_GWF-(1,26422)  5.10605099E-04                    1_GWF-(1,14800)
        287          6         37 -8.69919125E-03                    1_GWF-(1,26350)  3.73976708E-04                    1_GWF-(1,14801)
        288          6         38 -8.32154086E-03                    1_GWF-(1,26422)  3.18054055E-04                    1_GWF-(1,10629)
        289          6         39 -6.53894052E-03                    1_GWF-(1,20587)  5.21685557E-04                    1_GWF-(1,10650)
        290          6         40 -5.93246543E-03                    1_GWF-(1,20606)  3.55298819E-04                    1_GWF-(1,14801)
        291          6         41 -5.68145984E-03                    1_GWF-(1,20606)  4.78538100E-04                    1_GWF-(1,14800)
        292          6         42 -4.17428707E-03                    1_GWF-(1,20703)  5.89405475E-04                    1_GWF-(1,14801)
        293          6         43  4.29219000E-03                    1_GWF-(1,26421)  6.50442271E-04                    1_GWF-(1,14800)
        294          6         44  3.82673558E-03                    1_GWF-(1,26346)  7.16231686E-04                    1_GWF-(1,14801)
        295          6         45  4.83877144E-03                    1_GWF-(1,26218)  6.69962669E-04                    1_GWF-(1,14800)
        296          6         46  4.09215878E-03                    1_GWF-(1,20233)  6.66730764E-04                    1_GWF-(1,14801)
        297          6         47  3.03608753E-03                    1_GWF-(1,20738)  5.95734947E-04                    1_GWF-(1,14800)
        298          6         48  3.09796327E-03                    1_GWF-(1,21427)  5.56366127E-04                    1_GWF-(1,14801)
        299          6         49  2.34357790E-03                    1_GWF-(1,20719)  4.64766016E-04                    1_GWF-(1,14800)
        300          6         50  1.66303419E-03                    1_GWF-(1,20949)  5.21635126E-04                    1_GWF-(1,10650)
        301          7          1 -7.53481445E-03                    1_GWF-(1,11439)  4.02700447E-04                    1_GWF-(1,14800)
        302          7          2 -2.83044330E-03                    1_GWF-(1,11440)  5.22761639E-04                    1_GWF-(1,10650)
        303          7          3  5.49991578E-03                    1_GWF-(1,11439)  5.11934658E-04                    1_GWF-(1,14800)
        304          7          4 -4.65458410E-03                    1_GWF-(1,11439)  5.63421784E-04                    1_GWF-(1,14801)
        305          7          5 -5.05159029E-03                    1_GWF-(1,11440)  5.32412265E-04                    1_GWF-(1,14800)
        306          7          6  4.98696938E-03                    1_GWF-(1,11440)  5.37686811E-04                    1_GWF-(1,14801)
        307          7          7 -2.23410398E-03                    1_GWF-(1,26217)  4.76402307E-04                    1_GWF-(1,14800)
        308          7          8 -2.66238390E-03                    1_GWF-(1,11440)  4.33310829E-04                    1_GWF-(1,14801)
        309          7          9  3.63883935E-03                    1_GWF-(1,11440)  3.33082013E-04                    1_GWF-(1,14800)
        310          7         10  3.11717700E-03                    1_GWF-(1,20606)  2.40008498E-04                    1_GWF-(1,14801)
        311          7         11  3.18292924E-03                    1_GWF-(1,20606)  3.50692064E-04                    1_GWF-(1,10650)
        312          7         12  3.34217906E-03                    1_GWF-(1,26350) -2.44114694E-04                    1_GWF-(1,10650)
        313          7         13  4.33422521E-03                    1_GWF-(1,26422)  2.65000879E-04                    1_GWF-(1,10650)
        314          7         14  4.25138090E-03                    1_GWF-(1,26350)  2.13354481E-04                    1_GWF-(1,14800)
        315          7         15  3.90089059E-03                    1_GWF-(1,26422)  2.39522490E-04                    1_GWF-(1,14801)
        316          7         16  2.55454577E-03                    1_GWF-(1,26420)  1.95846181E-04                    1_GWF-(1,10650)
        317          7         17 -2.27710515E-03                    1_GWF-(1,26622)  1.33973225E-04                    1_GWF-(1,10629)
        318          7         18  2.79763445E-03                    1_GWF-(1,26486)  1.43152459E-04                    1_GWF-(1,14801)
        319          7         19 -2.00782835E-03                    1_GWF-(1,26486)  2.01996981E-04                    1_GWF-(1,14800)
        320          7         20 -2.41225980E-03                    1_GWF-(1,21259)  2.17029948E-04                    1_GWF-(1,14801)
        321          7         21 -2.51909072E-03                    1_GWF-(1,20233)  2.91050450E-04                    1_GWF-(1,10650)
        322          7         22 -2.09558892E-03                    1_GWF-(1,20227) -2.71897194E-04                    1_GWF-(1,10650)
        323          7         23 -1.70886912E-03                    1_GWF-(1,11439)  3.14291559E-04                    1_GWF-(1,10650)
        324          7         24  1.93491624E-03                    1_GWF-(1,20225) -2.76800912E-04                    1_GWF-(1,10650)
        325          7         25  2.50230546E-03                    1_GWF-(1,20219)  2.82511769E-04                    1_GWF-(1,10650)
        326          7         26 -1.85040508E-03                    1_GWF-(1,26487) -1.51345463E-04                    1_GWF-(1,10650)
        327          7         27 -1.83513093E-03                    1_GWF-(1,26649) -4.60830949E-05                    1_GWF-(1,10650)
        328          7         28  1.64021990E-03                    1_GWF-(1,26486)  2.08619475E-04                    1_GWF-(1,10650)
        329          7         29  1.41868001E-03                    1_GWF-(1,26487) -2.57123031E-04                    1_GWF-(1,10650)
        330          7         30 -1.12688572E-03                    1_GWF-(1,20169)  2.18337173E-04                    1_GWF-(1,10650)
        331          7         31 -1.23778985E-03                    1_GWF-(1,20211) -1.68936528E-04                    1_GWF-(1,10650)
        332          7         32  1.38387016E-03                    1_GWF-(1,26665)  6.59191021E-05                    1_GWF-(1,14800)
        333          7         33  1.32135206E-03                    1_GWF-(1,26666) -2.51607447E-05                    1_GWF-(1,15904)
        334          7         34  1.36115494E-03                    1_GWF-(1,26420) -1.12920560E-04                    1_GWF-(1,10650)
        335          7         35  1.38292555E-03                    1_GWF-(1,26543)  1.22458882E-04                    1_GWF-(1,10650)
        336          7         36  1.08287597E-03                    1_GWF-(1,26588) -1.16832920E-04                    1_GWF-(1,10650)
        337          7         37 -8.34940562E-04                    1_GWF-(1,26588) -9.17287557E-05                    1_GWF-(1,14801)
        338          7         38 -9.79093034E-04                    1_GWF-(1,26543) -8.26625015E-05                    1_GWF-(1,14800)
        339          7         39 -1.18689563E-03                    1_GWF-(1,26588) -5.51678521E-05                    1_GWF-(1,14801)
        340          7         40 -1.31437180E-03                    1_GWF-(1,26665) -5.34605875E-05                    1_GWF-(1,10629)
        341          7         41  1.12306507E-03                    1_GWF-(1,26665) -8.77976436E-05                    1_GWF-(1,10650)
        342          7         42  8.34648313E-04                    1_GWF-(1,26666) -8.89913140E-05                    1_GWF-(1,14801)
        343          7         43 -8.94724151E-04                    1_GWF-(1,26217) -1.19018877E-04                    1_GWF-(1,14800)
        344          7         44  1.05852615E-03                    1_GWF-(1,21267) -1.47566780E-04                    1_GWF-(1,14801)
        345          7         45  1.26553945E-03                    1_GWF-(1,20915) -1.58643209E-04                    1_GWF-(1,14800)
        346          7         46  9.98990826E-04                    1_GWF-(1,20234) -1.76218984E-04                    1_GWF-(1,14801)
        347          7         47  1.25334125E-03                    1_GWF-(1,26218) -1.67465145E-04                    1_GWF-(1,14800)
        348          7         48  1.47763499E-03                    1_GWF-(1,26217) -1.79899321E-04                    1_GWF-(1,14801)
        349          7         49 -1.55474141E-03                    1_GWF-(1,20231) -1.42470142E-04                    1_GWF-(1,14800)
        350          7         50 -1.27404121E-03                    1_GWF-(1,20230)  1.81082295E-04                    1_GWF-(1,15910)
        351          8          1 -1.20897265E-03                    1_GWF-(1,26217) -1.30788002E-04                    1_GWF-(1,14800)
        352          8          2 -1.31681905E-03                    1_GWF-(1,26218) -1.50511262E-04                    1_GWF-(1,14801)
        353          8          3 -1.25368108E-03                    1_GWF-(1,26217)  1.38853294E-04                    1_GWF-(1,14801)
        354          8          4 -1.03371584E-03                    1_GWF-(1,26218) -1.45371352E-04                    1_GWF-(1,14801)
        355          8          5 -7.81212214E-04                    1_GWF-(1,26217) -1.25948818E-04                    1_GWF-(1,14800)
        356          8          6 -7.99574132E-04                    1_GWF-(1,20909) -1.12732390E-04                    1_GWF-(1,14801)
        357          8          7  5.45960122E-04                    1_GWF-(1,26218) -8.67535030E-05                    1_GWF-(1,14800)
        358          8          8  6.01040307E-04                    1_GWF-(1,26217) -6.17514808E-05                    1_GWF-(1,14801)
        359          8          9 -5.57537043E-04                    1_GWF-(1,26666) -6.55484670E-05                    1_GWF-(1,10650)
        360          8         10  7.35045572E-04                    1_GWF-(1,26420) -3.85091943E-05                    1_GWF-(1,10629)
        361          8         11 -7.46440128E-04                    1_GWF-(1,26588) -3.48468796E-05                    1_GWF-(1,14801)
        362          8         12  7.53313599E-04                    1_GWF-(1,26588) -5.05143136E-05                    1_GWF-(1,14800)
        363          8         13  6.32384783E-04                    1_GWF-(1,26543) -5.30841065E-05                    1_GWF-(1,14801)
        364          8         14  6.54639834E-04                    1_GWF-(1,26588) -6.60725254E-05                    1_GWF-(1,10650)
        365          8         15 -7.14266790E-04                    1_GWF-(1,26588)  6.74655968E-05                    1_GWF-(1,10650)
        366          8         16  8.99741318E-04                    1_GWF-(1,26665) -3.79485575E-05                    1_GWF-(1,10650)
        367          8         17 -6.72211730E-04                    1_GWF-(1,26487) -4.06226226E-05                    1_GWF-(1,10650)
        368          8         18 -7.23269404E-04                    1_GWF-(1,26486)  6.98635429E-05                    1_GWF-(1,10650)
        369          8         19 -7.71240289E-04                    1_GWF-(1,26649) -8.88761304E-05                    1_GWF-(1,10650)
        370          8         20 -7.64518882E-04                    1_GWF-(1,26622)  5.56160032E-05                    1_GWF-(1,10650)
        371          8         21 -7.63686205E-04                    1_GWF-(1,26649) -1.42186487E-05                    1_GWF-(1,15584)
        372          8         22 -8.84378695E-04                    1_GWF-(1,26622) -5.31125506E-05                    1_GWF-(1,10650)
        373          8         23 -7.82699463E-04                    1_GWF-(1,20158)  1.07133950E-04                    1_GWF-(1,10650)
        374          8         24 -9.18998651E-04                    1_GWF-(1,20163) -1.30518686E-04                    1_GWF-(1,10650)
        375          8         25 -7.05668415E-04                    1_GWF-(1,20567)  1.37282009E-04                    1_GWF-(1,10650)
        376          8         26 -9.78453400E-04                    1_GWF-(1,20219) -1.11937838E-04                    1_GWF-(1,10650)
        377          8         27 -6.77007173E-04                    1_GWF-(1,20221)  1.06002397E-04                    1_GWF-(1,10650)
        378          8         28  5.45151654E-04                    1_GWF-(1,26622) -7.12994622E-05                    1_GWF-(1,10650)
        379          8         29  7.54380221E-04                    1_GWF-(1,26420)  3.17006469E-05                    1_GWF-(1,10650)
        380          8         30  8.75240664E-04                    1_GWF-(1,26487)  7.26631695E-05                    1_GWF-(1,10650)
        381          8         31  8.28521245E-04                    1_GWF-(1,20918) -7.60940459E-05                    1_GWF-(1,10650)
        382          8         32  6.70958819E-04                    1_GWF-(1,21261)  9.32265657E-05                    1_GWF-(1,10650)
        383          8         33  5.33669659E-04                    1_GWF-(1,20208)  6.48016141E-05                    1_GWF-(1,14801)
        384          8         34 -6.63067995E-04                    1_GWF-(1,26486)  6.70701060E-05                    1_GWF-(1,14800)
        385          8         35 -7.14123753E-04                    1_GWF-(1,26350)  6.56431237E-05                    1_GWF-(1,14801)
        386          8         36 -9.76769558E-04                    1_GWF-(1,26422)  5.44061929E-05                    1_GWF-(1,14800)
        387          8         37 -1.02075959E-03                    1_GWF-(1,26350)  6.38491916E-05                    1_GWF-(1,10650)
        388          8         38 -9.63835139E-04                    1_GWF-(1,26422) -5.46875935E-05                    1_GWF-(1,10650)
        389          8         39 -7.41645155E-04                    1_GWF-(1,20588)  7.39400078E-05                    1_GWF-(1,10650)
        390          8         40 -6.89796373E-04                    1_GWF-(1,20606)  4.23716774E-05                    1_GWF-(1,10629)
        391          8         41 -6.12723321E-04                    1_GWF-(1,20611)  5.56069984E-05                    1_GWF-(1,14800)
        392          8         42 -4.35684551E-04                    1_GWF-(1,20703)  6.88056656E-05                    1_GWF-(1,14801)
        393          8         43  5.12332222E-04                    1_GWF-(1,26421)  7.49552734E-05                    1_GWF-(1,14800)
        394          8         44  4.67903513E-04                    1_GWF-(1,26346)  8.19417061E-05                    1_GWF-(1,14801)
        395          8         45  5.59202152E-04                    1_GWF-(1,26218)  7.47248926E-05                    1_GWF-(1,14800)
        396          8         46  4.01363111E-04                    1_GWF-(1,20233)  7.62548071E-05                    1_GWF-(1,14801)
        397          8         47  3.72870255E-04                    1_GWF-(1,11439)  6.86077653E-05                    1_GWF-(1,14800)
        398          8         48 -4.44789814E-04                    1_GWF-(1,11439)  6.79151223E-05                    1_GWF-(1,10650)
        399          8         49  2.57714664E-04                    1_GWF-(1,26218)  5.25532028E-05                    1_GWF-(1,14800)
        400          8         50  4.38523162E-04                    1_GWF-(1,11439)  6.39020018E-05                    1_GWF-(1,10650)
        401          9          1 -4.23637273E-04                    1_GWF-(1,11439)  5.03396942E-05                    1_GWF-(1,14800)
        402          9          2 -3.08313825E-04                    1_GWF-(1,26218)  6.09404650E-05                    1_GWF-(1,10650)
        403          9          3  3.42248719E-04                    1_GWF-(1,11439)  5.96172855E-05                    1_GWF-(1,14800)
        404          9          4 -3.53862848E-04                    1_GWF-(1,26486)  6.39909304E-05                    1_GWF-(1,14801)
        405          9          5 -3.96357912E-04                    1_GWF-(1,26544)  5.86537863E-05                    1_GWF-(1,14800)
        406          9          6 -4.29511753E-04                    1_GWF-(1,26486)  5.42098398E-05                    1_GWF-(1,14801)
        407          9          7 -3.60852835E-04                    1_GWF-(1,26544)  3.04096929E-05                    1_GWF-(1,14800)
        408          9          8 -4.00957002E-04                    1_GWF-(1,26486)  1.96833119E-05                    1_GWF-(1,10481)
        409          9          9 -3.46209855E-04                    1_GWF-(1,26487)  4.36878173E-05                    1_GWF-(1,14801)
        410          9         10  3.01924771E-04                    1_GWF-(1,20700)  5.04883393E-05                    1_GWF-(1,14800)
        411          9         11  3.87116030E-04                    1_GWF-(1,20606)  4.67001211E-05                    1_GWF-(1,14801)
        412          9         12  3.31650722E-04                    1_GWF-(1,20587)  3.59103637E-05                    1_GWF-(1,14800)
        413          9         13  3.47917866E-04                    1_GWF-(1,21275)  2.63827663E-05                    1_GWF-(1,14801)
        414          9         14  4.16131493E-04                    1_GWF-(1,26422)  3.94448775E-05                    1_GWF-(1,10650)
        415          9         15  4.02570074E-04                    1_GWF-(1,26350) -2.32575110E-05                    1_GWF-(1,10650)
        416          9         16  3.75700021E-04                    1_GWF-(1,26422)  2.35063734E-05                    1_GWF-(1,10650)
        417          9         17  2.96208502E-04                    1_GWF-(1,26543)  1.98663314E-05                    1_GWF-(1,14800)
        418          9         18  3.48588330E-04                    1_GWF-(1,26588)  1.83629428E-05                    1_GWF-(1,14801)
        419          9         19  2.66067665E-04                    1_GWF-(1,26543)  2.64017959E-05                    1_GWF-(1,10650)
        420          9         20 -2.87059222E-04                    1_GWF-(1,21259) -1.53784006E-05                    1_GWF-(1,10650)
        421          9         21 -2.93906666E-04                    1_GWF-(1,26350)  1.76598646E-05                    1_GWF-(1,14801)
        422          9         22 -3.45040452E-04                    1_GWF-(1,26422)  2.06411812E-05                    1_GWF-(1,14800)
        423          9         23 -2.79472598E-04                    1_GWF-(1,26350)  2.19905048E-05                    1_GWF-(1,14801)
        424          9         24  2.16795352E-04                    1_GWF-(1,20231)  2.52168813E-05                    1_GWF-(1,10650)
        425          9         25  3.13435925E-04                    1_GWF-(1,20219) -2.85347991E-05                    1_GWF-(1,10650)
        426          9         26  1.88819543E-04                    1_GWF-(1,20567)  3.56448612E-05                    1_GWF-(1,10650)
        427          9         27  2.32617935E-04                    1_GWF-(1,20511) -3.50749408E-05                    1_GWF-(1,10650)
        428          9         28  2.13589954E-04                    1_GWF-(1,20164)  3.44680359E-05                    1_GWF-(1,10650)
        429          9         29  1.68764342E-04                    1_GWF-(1,20115) -3.14975308E-05                    1_GWF-(1,10650)
        430          9         30 -1.55182170E-04                    1_GWF-(1,20167)  2.46932367E-05                    1_GWF-(1,10650)
        431          9         31 -1.55249371E-04                    1_GWF-(1,20211) -1.78253304E-05                    1_GWF-(1,10650)
        432          9         32  2.07733437E-04                    1_GWF-(1,26665)  5.33172192E-06                    1_GWF-(1,14800)
        433          9         33  1.88535730E-04                    1_GWF-(1,26666) -6.28723234E-06                    1_GWF-(1,10629)
        434          9         34  1.71385759E-04                    1_GWF-(1,26665) -1.68593268E-05                    1_GWF-(1,10650)
        435          9         35 -1.70879810E-04                    1_GWF-(1,26665)  1.49791277E-05                    1_GWF-(1,10650)
        436          9         36  1.16623294E-04                    1_GWF-(1,26350) -1.18353650E-05                    1_GWF-(1,10650)
        437          9         37 -1.21811205E-04                    1_GWF-(1,26649) -7.79350001E-06                    1_GWF-(1,14801)
        438          9         38 -1.47068096E-04                    1_GWF-(1,26622) -4.51516466E-06                    1_GWF-(1,10481)
        439          9         39 -1.39452954E-04                    1_GWF-(1,26623) -1.09020375E-05                    1_GWF-(1,10650)
        440          9         40 -1.28718430E-04                    1_GWF-(1,26487) -8.77299729E-06                    1_GWF-(1,10629)
        441          9         41 -1.14824867E-04                    1_GWF-(1,26420) -1.05890472E-05                    1_GWF-(1,10650)
        442          9         42 -8.73493432E-05                    1_GWF-(1,26218) -1.17208117E-05                    1_GWF-(1,14801)
        443          9         43 -1.10733524E-04                    1_GWF-(1,26217) -1.40027028E-05                    1_GWF-(1,14800)
        444          9         44  1.21126136E-04                    1_GWF-(1,20584) -1.72178619E-05                    1_GWF-(1,14801)
        445          9         45  1.44761592E-04                    1_GWF-(1,20915) -1.81674526E-05                    1_GWF-(1,14800)
        446          9         46  1.04957801E-04                    1_GWF-(1,26217) -1.99837386E-05                    1_GWF-(1,14801)
        447          9         47  1.45162421E-04                    1_GWF-(1,26218) -1.86350178E-05                    1_GWF-(1,14800)
        448          9         48  1.73774540E-04                    1_GWF-(1,26217) -2.00095986E-05                    1_GWF-(1,14801)
        449          9         49  1.75135848E-04                    1_GWF-(1,26218) -1.66008599E-05                    1_GWF-(1,14800)
        450          9         50  1.42162131E-04                    1_GWF-(1,26217)  1.85865522E-05                    1_GWF-(1,15910)
        451         10          1 -1.31860436E-04                    1_GWF-(1,26217) -1.34299247E-05                    1_GWF-(1,14800)
        452         10          2  1.28098767E-04                    1_GWF-(1,20231) -1.04462921E-05                    1_GWF-(1,14801)
        453         10          3  1.21935536E-04                    1_GWF-(1,26588)  7.76418757E-06                    1_GWF-(1,15910)
        454         10          4  1.14692075E-04                    1_GWF-(1,26543) -8.72175089E-06                    1_GWF-(1,14800)
        455         10          5 -9.11587657E-05                    1_GWF-(1,26218) -1.44287270E-05                    1_GWF-(1,14801)
        456         10          6 -9.99098534E-05                    1_GWF-(1,26217) -1.48629665E-05                    1_GWF-(1,14800)
        457         10          7 -8.14775130E-05                    1_GWF-(1,26218) -1.47162145E-05                    1_GWF-(1,14801)
        458         10          8  1.09645610E-04                    1_GWF-(1,26218) -1.17289204E-05                    1_GWF-(1,14800)
        459         10          9  9.42196755E-05                    1_GWF-(1,26217) -1.03438636E-05                    1_GWF-(1,14801)
        460         10         10  6.96532911E-05                    1_GWF-(1,26218) -8.66590026E-06                    1_GWF-(1,14800)
        461         10         11  6.75130597E-05                    1_GWF-(1,26420) -8.02226244E-06                    1_GWF-(1,14801)
        462         10         12  5.36324691E-05                    1_GWF-(1,26218) -7.33558610E-06                    1_GWF-(1,14800)
        463         10         13 -5.17933888E-05                     1_GWF-(1,8192) -6.36042378E-06                    1_GWF-(1,14801)
        464         10         14  5.21198543E-05                    1_GWF-(1,26665) -8.20864876E-06                    1_GWF-(1,10650)
        465         10         15  8.29540260E-05                    1_GWF-(1,26666)  6.04558216E-06                    1_GWF-(1,10650)
        466         10         16  1.17680111E-04                    1_GWF-(1,26665) -2.59100106E-06                    1_GWF-(1,14801)
        467         10         17 -7.13329589E-05                    1_GWF-(1,26665) -6.99729927E-06                    1_GWF-(1,10650)
        468         10         18  5.90025693E-05                    1_GWF-(1,26543)  9.35957238E-06                    1_GWF-(1,10650)
        469         10         19  8.22258569E-05                    1_GWF-(1,20120) -1.26183547E-05                    1_GWF-(1,10650)
        470         10         20  8.54279035E-05                    1_GWF-(1,20168)  1.14618836E-05                    1_GWF-(1,10650)
        471         10         21 -9.21520036E-05                    1_GWF-(1,26649) -7.38780151E-06                    1_GWF-(1,10650)
        472         10         22 -1.29157511E-04                    1_GWF-(1,26622)  1.90117300E-06                    1_GWF-(1,10629)
        473         10         23 -8.60998506E-05                    1_GWF-(1,26649)  9.88767504E-06                    1_GWF-(1,10650)
        474         10         24 -1.03174271E-04                    1_GWF-(1,20163) -1.27885931E-05                    1_GWF-(1,10650)
        475         10         25  1.12837072E-04                    1_GWF-(1,26487)  1.09640048E-05                    1_GWF-(1,10650)
        476         10         26 -1.04107721E-04                    1_GWF-(1,20219)  3.13442584E-06                    1_GWF-(1,10629)
        477         10         27  1.02059937E-04                    1_GWF-(1,26543) -3.63963417E-06                    1_GWF-(1,10650)
        478         10         28  1.01710971E-04                    1_GWF-(1,26588)  1.04549179E-05                    1_GWF-(1,10650)
        479         10         29  7.61063963E-05                    1_GWF-(1,20210) -1.11537716E-05                    1_GWF-(1,10650)
        480         10         30  8.34298036E-05                    1_GWF-(1,20228)  1.48977035E-05                    1_GWF-(1,10650)
        481         10         31  1.08517027E-04                    1_GWF-(1,20918) -1.03069162E-05                    1_GWF-(1,10650)
        482         10         32  8.49391424E-05                    1_GWF-(1,21261)  1.12960431E-05                    1_GWF-(1,10650)
        483         10         33  6.87292147E-05                    1_GWF-(1,20207)  7.73644425E-06                    1_GWF-(1,14801)
        484         10         34 -6.88108262E-05                    1_GWF-(1,26486)  7.91340764E-06                    1_GWF-(1,14800)
        485         10         35 -8.35902404E-05                    1_GWF-(1,26350)  7.86825867E-06                    1_GWF-(1,14801)
        486         10         36 -1.11689431E-04                    1_GWF-(1,26422)  6.64954088E-06                    1_GWF-(1,14800)
        487         10         37 -1.12846700E-04                    1_GWF-(1,26350)  6.88632326E-06                    1_GWF-(1,10650)
        488         10         38 -9.58749156E-05                    1_GWF-(1,26486)  4.86270811E-06                    1_GWF-(1,10629)
        489         10         39 -8.34848636E-05                    1_GWF-(1,26544)  4.75491895E-06                    1_GWF-(1,10650)
        490         10         40 -7.07638585E-05                    1_GWF-(1,20606)  5.08964701E-06                    1_GWF-(1,14801)
        491         10         41 -6.73465866E-05                    1_GWF-(1,20606)  4.47498735E-06                    1_GWF-(1,10481)
        492         10         42  7.42472909E-05                    1_GWF-(1,26422)  7.26891908E-06                    1_GWF-(1,10650)
        493         10         43  7.69277638E-05                    1_GWF-(1,26420)  4.52941264E-06                    1_GWF-(1,10629)
        494         10         44  8.00864945E-05                    1_GWF-(1,26422)  5.84827799E-06                    1_GWF-(1,14800)
        495         10         45  6.96610705E-05                    1_GWF-(1,26350)  7.29770751E-06                    1_GWF-(1,14801)
        496         10         46  5.90258129E-05                    1_GWF-(1,26486)  7.61629044E-06                    1_GWF-(1,14800)
        497         10         47  4.62116229E-05                    1_GWF-(1,26420)  8.10449724E-06                    1_GWF-(1,14801)
        498         10         48  3.56798634E-05                    1_GWF-(1,26486)  7.56296951E-06                    1_GWF-(1,14800)
        499         10         49 -4.01178543E-05                    1_GWF-(1,11439)  7.31488069E-06                    1_GWF-(1,14801)
        500         10         50  4.09159924E-05                    1_GWF-(1,11439)  5.59225667E-06                    1_GWF-(1,14800)
        501         11          1 -3.75970671E-05                    1_GWF-(1,26218)  1.15818973E-05                    1_GWF-(1,14801)
        502         11          2 -4.29776812E-05                    1_GWF-(1,26217)  8.64486554E-06                    1_GWF-(1,14800)
        503         11          3 -3.16095332E-05                    1_GWF-(1,26486)  6.77583755E-06                    1_GWF-(1,14801)
        504         11          4 -4.05978452E-05                    1_GWF-(1,26420)  5.72570722E-06                    1_GWF-(1,14800)
        505         11          5 -4.63970859E-05                    1_GWF-(1,26486)  5.97534306E-06                    1_GWF-(1,14801)
        506         11          6 -4.53311277E-05                    1_GWF-(1,26350)  5.37596763E-06                    1_GWF-(1,14800)
        507         11          7 -5.04075104E-05                    1_GWF-(1,26421)  3.92165393E-06                    1_GWF-(1,14801)
        508         11          8 -4.97107150E-05                    1_GWF-(1,26420)  4.73390923E-06                    1_GWF-(1,10650)
        509         11          9 -4.49348724E-05                    1_GWF-(1,26422)  2.69085315E-06                    1_GWF-(1,10481)
        510         11         10  3.95079721E-05                    1_GWF-(1,20606)  3.47656538E-06                    1_GWF-(1,14801)
        511         11         11  4.60917615E-05                    1_GWF-(1,26622)  2.94941055E-06                    1_GWF-(1,14800)
        512         11         12  4.75997279E-05                    1_GWF-(1,26649) -2.99137894E-06                    1_GWF-(1,10650)
        513         11         13  4.53325220E-05                    1_GWF-(1,26422)  3.90234219E-06                    1_GWF-(1,10650)
        514         11         14  5.49196688E-05                    1_GWF-(1,26350)  2.84749913E-06                    1_GWF-(1,14800)
        515         11         15  4.93403035E-05                    1_GWF-(1,26422)  2.88349355E-06                    1_GWF-(1,14801)
        516         11         16  4.72758812E-05                    1_GWF-(1,26588)  2.96815951E-06                    1_GWF-(1,10650)
        517         11         17  4.78752701E-05                    1_GWF-(1,26543)  2.34117859E-06                    1_GWF-(1,10629)
        518         11         18  4.65809861E-05                    1_GWF-(1,26588)  2.23618192E-06                    1_GWF-(1,10650)
        519         11         19  3.08567429E-05                    1_GWF-(1,26589)  2.69644732E-06                    1_GWF-(1,14800)
        520         11         20 -3.69753558E-05                    1_GWF-(1,21259)  3.13796479E-06                    1_GWF-(1,14801)
        521         11         21 -3.11190099E-05                    1_GWF-(1,20233)  3.52494987E-06                    1_GWF-(1,10650)
        522         11         22 -3.46462124E-05                    1_GWF-(1,26420) -2.88051423E-06                    1_GWF-(1,10650)
        523         11         23 -3.77779627E-05                    1_GWF-(1,26487)  1.73257647E-06                    1_GWF-(1,10650)
        524         11         24 -4.26580787E-05                    1_GWF-(1,26486)  1.52069637E-06                    1_GWF-(1,14800)
        525         11         25  3.42511904E-05                    1_GWF-(1,20219) -2.58009936E-06                    1_GWF-(1,10650)
        526         11         26 -2.87548657E-05                    1_GWF-(1,26486)  3.87777369E-06                    1_GWF-(1,10650)
        527         11         27  2.72490673E-05                    1_GWF-(1,20511) -4.07620717E-06                    1_GWF-(1,10650)
        528         11         28  2.68319534E-05                    1_GWF-(1,20164)  4.25714706E-06                    1_GWF-(1,10650)
        529         11         29  1.92546040E-05                    1_GWF-(1,20115) -4.00627102E-06                    1_GWF-(1,10650)
        530         11         30 -1.86035241E-05                    1_GWF-(1,20167)  3.38991136E-06                    1_GWF-(1,10650)
        531         11         31 -2.05963826E-05                    1_GWF-(1,20168) -2.71470825E-06                    1_GWF-(1,10650)
        532         11         32  1.83956558E-05                    1_GWF-(1,26665)  1.25995853E-06                    1_GWF-(1,10650)
        533         11         33  1.92213218E-05                    1_GWF-(1,26666)  5.23556068E-07                    1_GWF-(1,14801)
        534         11         34  1.90548599E-05                    1_GWF-(1,26665) -1.16367641E-06                    1_GWF-(1,10650)
        535         11         35 -2.23879337E-05                    1_GWF-(1,26665)  1.59427385E-06                    1_GWF-(1,10650)
        536         11         36 -1.54438943E-05                    1_GWF-(1,26666) -1.88897740E-06                    1_GWF-(1,10650)
        537         11         37  9.53070340E-06                    1_GWF-(1,26666)  1.36641653E-06                    1_GWF-(1,10650)
        538         11         38 -1.03932383E-05                    1_GWF-(1,20221) -1.35452525E-06                    1_GWF-(1,14800)
        539         11         39 -8.80848053E-06                    1_GWF-(1,20161) -1.39955435E-06                    1_GWF-(1,14801)
        540         11         40 -1.03361979E-05                    1_GWF-(1,26419)  1.43077683E-06                    1_GWF-(1,14801)
        541         11         41 -1.21307174E-05                    1_GWF-(1,26486) -1.62466534E-06                    1_GWF-(1,14801)
        542         11         42 -1.33265736E-05                    1_GWF-(1,26217) -1.77656678E-06                    1_GWF-(1,14800)
        543         11         43 -1.66071621E-05                    1_GWF-(1,26218) -2.04942008E-06                    1_GWF-(1,14801)
        544         11         44  1.64924324E-05                    1_GWF-(1,26486) -1.69697455E-06                    1_GWF-(1,14800)
        545         11         45  1.68315463E-05                    1_GWF-(1,26487) -9.25735394E-07                    1_GWF-(1,10650)
        546         11         46  1.76932654E-05                    1_GWF-(1,26486) -1.04049654E-06                    1_GWF-(1,14801)
        547         11         47  1.68620871E-05                    1_GWF-(1,26487) -1.69487201E-06                    1_GWF-(1,14800)
        548         11         48 -1.77899260E-05                    1_GWF-(1,20915) -2.18364573E-06                    1_GWF-(1,10650)
        549         11         49  2.08472307E-05                    1_GWF-(1,26218) -1.96550220E-06                    1_GWF-(1,14800)
        550         11         50  1.86287759E-05                    1_GWF-(1,26217) -2.19806929E-06                    1_GWF-(1,14801)
        551         12          1 -1.83170983E-05                    1_GWF-(1,26217) -1.98767734E-06                    1_GWF-(1,14800)
        552         12          2 -1.88798381E-05                    1_GWF-(1,26218) -1.78481094E-06                    1_GWF-(1,10650)
        553         12          3  1.55536157E-05                    1_GWF-(1,20915)  9.46161143E-07                    1_GWF-(1,15910)
        554         12          4  1.59586155E-05                    1_GWF-(1,26622)  4.81352459E-07                    1_GWF-(1,10650)
        555         12          5  1.48698961E-05                    1_GWF-(1,26623) -1.30967072E-06                    1_GWF-(1,14801)
        556         12          6  1.23751554E-05                    1_GWF-(1,26622) -1.42726638E-06                    1_GWF-(1,14800)
        557         12          7 -7.56746341E-06                    1_GWF-(1,26218) -1.47479493E-06                    1_GWF-(1,14801)
        558         12          8  1.13831567E-05                    1_GWF-(1,26218) -1.13231574E-06                    1_GWF-(1,14800)
        559         12          9  1.25148276E-05                    1_GWF-(1,26487) -5.31778259E-07                    1_GWF-(1,14801)
        560         12         10  1.59607181E-05                    1_GWF-(1,26420) -6.98207393E-07                    1_GWF-(1,10650)
        561         12         11  1.83670017E-05                    1_GWF-(1,26487) -9.62968316E-07                    1_GWF-(1,14800)
        562         12         12  1.20779659E-05                    1_GWF-(1,26420) -1.18374703E-06                    1_GWF-(1,14801)
        563         12         13 -9.74856264E-06                    1_GWF-(1,26420) -8.99257100E-07                    1_GWF-(1,14800)
        564         12         14 -9.63526567E-06                    1_GWF-(1,26487) -5.96365741E-07                    1_GWF-(1,14801)
        565         12         15 -1.07877048E-05                    1_GWF-(1,26543) -6.30813721E-07                    1_GWF-(1,10650)
        566         12         16 -1.33035523E-05                    1_GWF-(1,26588) -5.93057436E-07                    1_GWF-(1,14800)
        567         12         17 -1.01795076E-05                    1_GWF-(1,26543) -7.62029064E-07                    1_GWF-(1,14801)
        568         12         18  6.48055600E-06                    1_GWF-(1,11428)  9.45697194E-07                    1_GWF-(1,14801)
        569         12         19  9.27245007E-06                    1_GWF-(1,20207)  1.03931033E-06                    1_GWF-(1,10650)
        570         12         20  1.07020789E-05                    1_GWF-(1,20212) -1.38890256E-06                    1_GWF-(1,10650)
        571         12         21  1.18383045E-05                    1_GWF-(1,20167)  1.59211531E-06                    1_GWF-(1,10650)
        572         12         22 -9.39707231E-06                    1_GWF-(1,20115) -1.66041729E-06                    1_GWF-(1,10650)
        573         12         23 -1.08249244E-05                    1_GWF-(1,20167)  1.98616386E-06                    1_GWF-(1,10650)
        574         12         24 -1.30444624E-05                    1_GWF-(1,20163) -1.81116470E-06                    1_GWF-(1,10650)
        575         12         25  9.72698792E-06                    1_GWF-(1,26663)  1.41026514E-06                    1_GWF-(1,10650)
        576         12         26 -1.24660725E-05                    1_GWF-(1,20208) -5.20246545E-07                    1_GWF-(1,10650)
        577         12         27  1.08892000E-05                    1_GWF-(1,26543)  2.12391380E-07                    1_GWF-(1,10481)
        578         12         28 -1.18590265E-05                    1_GWF-(1,26666)  1.07538070E-06                    1_GWF-(1,10650)
        579         12         29 -1.16966716E-05                    1_GWF-(1,26665) -1.26418101E-06                    1_GWF-(1,10650)
        580         12         30  9.26018155E-06                    1_GWF-(1,20228)  1.70917947E-06                    1_GWF-(1,10650)
        581         12         31  1.22547447E-05                    1_GWF-(1,20918) -1.15811806E-06                    1_GWF-(1,10650)
        582         12         32  9.75688886E-06                    1_GWF-(1,21261)  1.18648189E-06                    1_GWF-(1,10650)
        583         12         33  8.31476136E-06                    1_GWF-(1,20221)  8.47504276E-07                    1_GWF-(1,14801)
        584         12         34 -1.19077299E-05                    1_GWF-(1,26486)  5.32845591E-07                    1_GWF-(1,14800)
        585         12         35 -1.20776461E-05                    1_GWF-(1,26487)  7.29552517E-07                    1_GWF-(1,10650)
        586         12         36 -1.11236785E-05                    1_GWF-(1,26420)  7.47743522E-07                    1_GWF-(1,14801)
        587         12         37 -9.56942981E-06                    1_GWF-(1,26422)  9.96958128E-07                    1_GWF-(1,14800)
        588         12         38 -9.87348194E-06                    1_GWF-(1,26350)  1.13518968E-06                    1_GWF-(1,14801)
        589         12         39 -1.03231231E-05                    1_GWF-(1,20588)  1.04659444E-06                    1_GWF-(1,14800)
        590         12         40 -9.27251981E-06                    1_GWF-(1,20603)  9.80555384E-07                    1_GWF-(1,14801)
        591         12         41 -8.24908959E-06                    1_GWF-(1,20606)  6.49487397E-07                    1_GWF-(1,14800)
        592         12         42  8.14074865E-06                    1_GWF-(1,26422)  8.40410523E-07                    1_GWF-(1,10650)
        593         12         43  8.29647540E-06                    1_GWF-(1,26350)  4.62262692E-07                    1_GWF-(1,10629)
        594         12         44  9.01248015E-06                    1_GWF-(1,26486)  5.23058224E-07                    1_GWF-(1,14800)
        595         12         45 -7.75020354E-06                    1_GWF-(1,26649)  5.36817939E-07                    1_GWF-(1,14801)
        596         12         46  7.45639551E-06                    1_GWF-(1,26649)  4.51374421E-07                    1_GWF-(1,10481)
        597         12         47  7.94568889E-06                    1_GWF-(1,26422)  6.41150699E-07                    1_GWF-(1,10650)
        598         12         48  8.03545815E-06                    1_GWF-(1,26420)  3.85431555E-07                    1_GWF-(1,14801)
        599         12         49 -4.93324107E-06                    1_GWF-(1,26420)  4.36371185E-07                    1_GWF-(1,14800)
        600         12         50 -5.50250003E-06                    1_GWF-(1,26487)  6.58429109E-07                    1_GWF-(1,10650)
        601         13          1 -6.12777115E-06                    1_GWF-(1,26588)  6.73113521E-07                    1_GWF-(1,14800)
        602         13          2 -6.81535617E-06                    1_GWF-(1,26543)  1.29092984E-07                    1_GWF-(1,10650)
        603         13          3 -6.21669099E-06                    1_GWF-(1,26588)  6.83367618E-07                    1_GWF-(1,10650)
        604         13          4 -8.11953675E-06                    1_GWF-(1,26487)  6.81019443E-07                    1_GWF-(1,14800)
        605         13          5 -7.92906243E-06                    1_GWF-(1,26486)  9.43119689E-07                    1_GWF-(1,14801)
        606         13          6 -6.89759265E-06                    1_GWF-(1,26544)  8.27049120E-07                    1_GWF-(1,14800)
        607         13          7 -6.33110720E-06                    1_GWF-(1,26486)  3.10119496E-07                    1_GWF-(1,14801)
        608         13          8  5.75988865E-06                    1_GWF-(1,26649)  7.18475099E-07                    1_GWF-(1,10650)
        609         13          9 -5.36743953E-06                    1_GWF-(1,26649)  7.34238526E-07                    1_GWF-(1,14800)
        610         13         10  4.57727647E-06                    1_GWF-(1,20583)  6.65071369E-07                    1_GWF-(1,14801)
        611         13         11  5.68356290E-06                    1_GWF-(1,20606)  4.97483033E-07                    1_GWF-(1,14800)
        612         13         12  5.05378871E-06                    1_GWF-(1,21273)  4.35352015E-07                    1_GWF-(1,14801)
        613         13         13  5.50618019E-06                    1_GWF-(1,26422)  5.72508167E-07                    1_GWF-(1,10650)
        614         13         14  6.56571308E-06                    1_GWF-(1,26350) -4.69389875E-07                    1_GWF-(1,10650)
        615         13         15  6.40484189E-06                    1_GWF-(1,26422)  5.20690887E-07                    1_GWF-(1,10650)
        616         13         16  4.88186217E-06                    1_GWF-(1,26487)  2.21903900E-07                    1_GWF-(1,14800)
        617         13         17  5.21330575E-06                    1_GWF-(1,26486)  2.61852771E-07                    1_GWF-(1,14801)
        618         13         18  4.54357110E-06                    1_GWF-(1,26588)  4.22215717E-07                    1_GWF-(1,10650)
        619         13         19  3.67647466E-06                    1_GWF-(1,26589) -2.26624744E-07                    1_GWF-(1,10650)
        620         13         20 -4.31605054E-06                    1_GWF-(1,21259)  3.24613313E-07                    1_GWF-(1,14801)
        621         13         21 -4.05937599E-06                    1_GWF-(1,26422)  4.23520290E-07                    1_GWF-(1,14800)
        622         13         22 -3.49483523E-06                    1_GWF-(1,26350)  4.25044777E-07                    1_GWF-(1,14801)
        623         13         23 -2.99180392E-06                    1_GWF-(1,26422)  3.67608514E-07                    1_GWF-(1,14800)
        624         13         24  3.40462391E-06                    1_GWF-(1,20231)  3.12432641E-07                    1_GWF-(1,14801)
        625         13         25  3.90753093E-06                    1_GWF-(1,20219)  4.01786382E-07                    1_GWF-(1,10650)
        626         13         26 -3.11969086E-06                    1_GWF-(1,26666) -3.69027004E-07                    1_GWF-(1,10650)
        627         13         27 -4.09161600E-06                    1_GWF-(1,26665)  1.91808324E-07                    1_GWF-(1,10650)
        628         13         28 -3.37574182E-06                    1_GWF-(1,26666)  1.27065755E-07                    1_GWF-(1,14800)
        629         13         29 -2.68835071E-06                    1_GWF-(1,26665) -3.17063934E-07                    1_GWF-(1,10650)
        630         13         30 -2.41943964E-06                    1_GWF-(1,20164)  3.82197150E-07                    1_GWF-(1,10650)
        631         13         31 -2.55458857E-06                    1_GWF-(1,20162) -4.14769970E-07                    1_GWF-(1,10650)
        632         13         32 -2.32837176E-06                    1_GWF-(1,20110)  3.57158635E-07                    1_GWF-(1,10650)
        633         13         33 -1.53009306E-06                    1_GWF-(1,20019) -3.83236163E-07                    1_GWF-(1,10650)
        634         13         34  1.88595757E-06                    1_GWF-(1,26543)  2.19506482E-07                    1_GWF-(1,10650)
        635         13         35  3.18980650E-06                    1_GWF-(1,26588) -5.96838958E-08                    1_GWF-(1,14800)
        636         13         36  2.91274157E-06                    1_GWF-(1,26543) -2.13422241E-07                    1_GWF-(1,10650)
        637         13         37 -1.84513447E-06                    1_GWF-(1,26543)  2.31111535E-07                    1_GWF-(1,10650)
        638         13         38  1.44612782E-06                    1_GWF-(1,26486) -2.00090806E-07                    1_GWF-(1,10650)
        639         13         39  1.42372622E-06                    1_GWF-(1,26487) -1.30752394E-07                    1_GWF-(1,14801)
        640         13         40 -2.47891012E-06                    1_GWF-(1,26487) -5.40357161E-08                    1_GWF-(1,14800)
        641         13         41 -2.66970201E-06                    1_GWF-(1,26420) -1.68719392E-07                    1_GWF-(1,10650)
        642         13         42 -1.99889998E-06                    1_GWF-(1,26487) -1.39407377E-07                    1_GWF-(1,10629)
        643         13         43  1.16358620E-06                    1_GWF-(1,26649) -1.75745592E-07                    1_GWF-(1,14800)
        644         13         44  1.46451273E-06                    1_GWF-(1,21268) -2.10110563E-07                    1_GWF-(1,14801)
        645         13         45  1.63085876E-06                    1_GWF-(1,20231) -2.10202531E-07                    1_GWF-(1,14800)
        646         13         46  1.47100478E-06                    1_GWF-(1,20232) -2.03750058E-07                    1_GWF-(1,14801)
        647         13         47  1.61465058E-06                    1_GWF-(1,26420) -1.46903920E-07                    1_GWF-(1,14800)
        648         13         48  2.22112812E-06                    1_GWF-(1,26487) -1.32005928E-07                    1_GWF-(1,10650)
        649         13         49 -2.08752730E-06                    1_GWF-(1,26622) -1.01704890E-07                    1_GWF-(1,14801)
        650         13         50 -2.16348249E-06                    1_GWF-(1,26623) -2.22008246E-07                    1_GWF-(1,14800)
        651         14          1  2.01244727E-06                    1_GWF-(1,26623) -2.60776795E-07                    1_GWF-(1,14801)
        652         14          2  2.11217443E-06                    1_GWF-(1,26622)  9.66546055E-08                    1_GWF-(1,14801)
        653         14          3 -1.86292250E-06                    1_GWF-(1,26487) -7.48991084E-08                    1_GWF-(1,14800)
        654         14          4 -1.54477972E-06                    1_GWF-(1,26420) -2.02847623E-07                    1_GWF-(1,14801)
        655         14          5  1.25521132E-06                    1_GWF-(1,26649) -2.67266989E-07                    1_GWF-(1,14800)
        656         14          6 -1.09546461E-06                    1_GWF-(1,20232) -2.33997512E-07                    1_GWF-(1,14801)
        657         14          7 -9.41944831E-07                    1_GWF-(1,24316) -1.78141970E-07                    1_GWF-(1,14800)
        658         15          1 -7.81884503E-07                    1_GWF-(1,26665) -1.93657889E-07                    1_GWF-(1,14801)
 --------------------------------------------------------------------------------------------------------------------------------------



 MEMORY MANAGER TOTAL STORAGE BY DATA TYPE, IN MEGABYTES
 -------------------------------
                    ALLOCATED   
 DATA TYPE           MEMORY     
 -------------------------------
 Character        4.66090000E-02
 Logical          4.40000000E-05
 Integer          5.2037920     
 Real             11.901376     
 -------------------------------
 Total            17.151821     
 -------------------------------


 
 Run end date and time (yyyy/mm/dd hh:mm:ss): 2022/06/01 17:08:53
 Elapsed run time:  0.652 Seconds
 Normal termination of simulation.
