                                   MODFLOW 6
                U.S. GEOLOGICAL SURVEY MODULAR HYDROLOGIC MODEL
                          GROUNDWATER FLOW MODEL (GWF)
                            VERSION 6.2.2 07/30/2021

   MODFLOW 6 compiled Jul 31 2021 14:22:53 with IFORT compiler (ver. 19.10.3)

This software has been approved for release by the U.S. Geological 
Survey (USGS). Although the software has been subjected to rigorous 
review, the USGS reserves the right to update the software as needed 
pursuant to further analysis and review. No warranty, expressed or 
implied, is made by the USGS or the U.S. Government as to the 
functionality of the software and related material nor shall the 
fact of release constitute any such warranty. Furthermore, the 
software is released on condition that neither the USGS nor the U.S. 
Government shall be held liable for any damages resulting from its 
authorized or unauthorized use. Also refer to the USGS Water 
Resources Software User Rights Notice for complete use, copyright, 
and distribution information.


System command used to initiate simulation:
mf6

MODFLOW was compiled using uniform precision.

Real Variables
  KIND: 8
  TINY (smallest non-zero value):    2.225074-308
  HUGE (largest value):    1.797693+308
  PRECISION: 15
  BIT SIZE: 64

Integer Variables
  KIND: 4
  HUGE (largest value): 2147483647
  BIT SIZE: 32

Long Integer Variables
  KIND: 8
  HUGE (largest value): 9223372036854775807
  BIT SIZE: 64

Logical Variables
  KIND: 4
  BIT SIZE: 32
 

 OPENED ./ml.disv
 FILE TYPE:DISV6                  UNIT 1005   STATUS:OLD                 
 FORMAT:FORMATTED              ACCESS:SEQUENTIAL          
 ACTION:READ                


 OPENED ./ml.ic
 FILE TYPE:IC6                    UNIT 1006   STATUS:OLD                 
 FORMAT:FORMATTED              ACCESS:SEQUENTIAL          
 ACTION:READ                


 OPENED ./ml.npf
 FILE TYPE:NPF6                   UNIT 1007   STATUS:OLD                 
 FORMAT:FORMATTED              ACCESS:SEQUENTIAL          
 ACTION:READ                


 OPENED ./ml.ghb
 FILE TYPE:GHB6                   UNIT 1008   STATUS:OLD                 
 FORMAT:FORMATTED              ACCESS:SEQUENTIAL          
 ACTION:READ                


 OPENED ./ml.rcha
 FILE TYPE:RCH6                   UNIT 1009   STATUS:OLD                 
 FORMAT:FORMATTED              ACCESS:SEQUENTIAL          
 ACTION:READ                


 OPENED ./ml.obs
 FILE TYPE:OBS6                   UNIT 1010   STATUS:OLD                 
 FORMAT:FORMATTED              ACCESS:SEQUENTIAL          
 ACTION:READ                


 OPENED ./ml.oc
 FILE TYPE:OC6                    UNIT 1011   STATUS:OLD                 
 FORMAT:FORMATTED              ACCESS:SEQUENTIAL          
 ACTION:READ                


 OPENED ml.wel
 FILE TYPE:WEL6                   UNIT 1012   STATUS:OLD                 
 FORMAT:FORMATTED              ACCESS:SEQUENTIAL          
 ACTION:READ                


 OPENED ml.drn
 FILE TYPE:DRN6                   UNIT 1013   STATUS:OLD                 
 FORMAT:FORMATTED              ACCESS:SEQUENTIAL          
 ACTION:READ                


 OPENED ml.riv
 FILE TYPE:RIV6                   UNIT 1014   STATUS:OLD                 
 FORMAT:FORMATTED              ACCESS:SEQUENTIAL          
 ACTION:READ                


 DISV -- VERTEX GRID DISCRETIZATION PACKAGE, VERSION 1 : 12/23/2015 - INPUT READ FROM UNIT 1005


 # File generated by Flopy version 3.3.5 on 04/28/2022 at 15:58:53.

 PROCESSING DISCRETIZATION OPTIONS
    MODEL LENGTH UNIT IS METERS
    XORIGIN SPECIFIED AS     405575.681000000    
    YORIGIN SPECIFIED AS     6423306.54000000    
 END OF DISCRETIZATION OPTIONS

 PROCESSING DISCRETIZATION DIMENSIONS
   NLAY = 1
   NCPL = 26674
   NVERT = 27090
 END OF DISCRETIZATION DIMENSIONS

 PROCESSING GRIDDATA
 END PROCESSING GRIDDATA

 PROCESSING VERTICES
   SUCCESSFULLY READ 27090 (X,Y) COORDINATES
   MINIMUM X COORDINATE =     405575.681000000    
   MAXIMUM X COORDINATE =     413975.681000000    
   MINIMUM Y COORDINATE =     6423306.54000000    
   MAXIMUM Y COORDINATE =     6432506.54000000    
 END PROCESSING VERTICES

 PROCESSING CELL2D
   SUCCESSFULLY READ 26674 CELL2D INFORMATION ENTRIES
   MINIMUM X CELL CENTER =     405675.681000000    
   MAXIMUM X CELL CENTER =     413875.681000000    
   MINIMUM Y CELL CENTER =     6423406.54000000    
   MAXIMUM Y CELL CENTER =     6432406.54000000    
   MAXIMUM NUMBER OF CELL2D VERTICES IS 6 FOR CELL 208
 END PROCESSING VERTICES

 NPF -- NODE PROPERTY FLOW PACKAGE, VERSION 1, 3/30/2015 INPUT READ FROM UNIT 1007


 # File generated by Flopy version 3.3.5 on 04/28/2022 at 15:58:55.
 PROCESSING NPF OPTIONS
    CELL-BY-CELL FLOW INFORMATION WILL BE SAVED TO BINARY FILE WHENEVER ICBCFL IS NOT ZERO.
    SPECIFIC DISCHARGE WILL BE CALCULATED AT CELL CENTERS AND WRITTEN TO DATA-SPDIS IN BUDGET FILE WHEN REQUESTED.
 END OF NPF OPTIONS

 WEL   -- WEL PACKAGE, VERSION 8, 2/22/2014 INPUT READ FROM UNIT 1012
 # File generated by Flopy version 3.3.5 on 04/28/2022 at 15:58:56.

 PROCESSING WEL OPTIONS
    WEL BOUNDARIES HAVE NAMES IN LAST COLUMN.
    FLOWS WILL BE SAVED TO BUDGET FILE SPECIFIED IN OUTPUT CONTROL
 END OF WEL OPTIONS

 PROCESSING WEL DIMENSIONS
    MAXBOUND =       9
 END OF WEL DIMENSIONS

 DRN   -- DRN PACKAGE, VERSION 8, 2/22/2014 INPUT READ FROM UNIT 1013
 # File generated by Flopy version 3.3.5 on 04/28/2022 at 15:58:56.

 PROCESSING DRN OPTIONS
    DRN BOUNDARIES HAVE NAMES IN LAST COLUMN.
    FLOWS WILL BE SAVED TO BUDGET FILE SPECIFIED IN OUTPUT CONTROL

 OPENED ml.drn.obs
 FILE TYPE:OBS   UNIT 1016   STATUS:OLD                 
 FORMAT:FORMATTED              ACCESS:SEQUENTIAL          
 ACTION:READ                

 END OF DRN OPTIONS

 PROCESSING DRN DIMENSIONS
    MAXBOUND =     133
 END OF DRN DIMENSIONS

 RIV   -- RIV PACKAGE, VERSION 8, 2/22/2014 INPUT READ FROM UNIT 1014
 # File generated by Flopy version 3.3.5 on 04/28/2022 at 15:58:56.

 PROCESSING RIV OPTIONS
    AUXILIARY RIV VARIABLE: FID             
    RIV BOUNDARIES HAVE NAMES IN LAST COLUMN.
    FLOWS WILL BE SAVED TO BUDGET FILE SPECIFIED IN OUTPUT CONTROL
 END OF RIV OPTIONS

 PROCESSING RIV DIMENSIONS
    MAXBOUND =     794
 END OF RIV DIMENSIONS

 GHB   -- GHB PACKAGE, VERSION 8, 2/22/2014 INPUT READ FROM UNIT 1008
 # File generated by Flopy version 3.3.5 on 04/28/2022 at 15:58:55.

 PROCESSING GHB OPTIONS
    GHB BOUNDARIES HAVE NAMES IN LAST COLUMN.
    FLOWS WILL BE SAVED TO BUDGET FILE SPECIFIED IN OUTPUT CONTROL
 END OF GHB OPTIONS

 PROCESSING GHB DIMENSIONS
    MAXBOUND =     153
 END OF GHB DIMENSIONS

 RCH   -- RCH PACKAGE, VERSION 8, 2/22/2014 INPUT READ FROM UNIT 1009
 # File generated by Flopy version 3.3.5 on 04/28/2022 at 15:58:55.

 PROCESSING RCH OPTIONS
    RECHARGE INPUT WILL BE READ AS ARRAY(S).
    FLOWS WILL BE SAVED TO BUDGET FILE SPECIFIED IN OUTPUT CONTROL
 END OF RCH OPTIONS

 IC -- INITIAL CONDITIONS PACKAGE, VERSION 8, 3/28/2015 INPUT READ FROM UNIT 1006
 # File generated by Flopy version 3.3.5 on 04/28/2022 at 15:58:55.
 PROCESSING GRIDDATA

     INITIAL HEAD =   15.00000    
 END PROCESSING GRIDDATA
 PROCESSING GRIDDATA

                ICELLTYPE = 0

 OPENED ../com_ext/k.txt
 FILE TYPE:OPEN/CLOSE   UNIT 1017   STATUS:OLD                 
 FORMAT:FORMATTED              ACCESS:SEQUENTIAL          
 ACTION:READ                

 K33 not provided.  Assuming K33 = K.
 K22 not provided.  Assuming K22 = K.
 END PROCESSING GRIDDATA

The observation utility is active for "ML"
 # File generated by Flopy version 3.3.5 on 04/28/2022 at 15:58:56.

Processing observation options:

Text output number of digits of precision set to: 10
The PRINT_INPUT option has been specified.


 OBSERVATIONS READ FROM FILE "ml.obs"
 ----------------------------------------------------------------------------------------------------------------------------------------------------------------------------------------------------------------------------
 NAME                                     TYPE                                       TIME         LOCATION DATA                              OUTPUT FILENAME                                                                 
 ----------------------------------------------------------------------------------------------------------------------------------------------------------------------------------------------------------------------------
 PRG                                      CONTINUOUS  HEAD                           ALL TIMES    "1 16523"                                  sim/hds.csv                                                                     
 P8                                       CONTINUOUS  HEAD                           ALL TIMES    "1 10323"                                  sim/hds.csv                                                                     
 P24                                      CONTINUOUS  HEAD                           ALL TIMES    "1 9594"                                   sim/hds.csv                                                                     
 P25                                      CONTINUOUS  HEAD                           ALL TIMES    "1 13966"                                  sim/hds.csv                                                                     
 P32                                      CONTINUOUS  HEAD                           ALL TIMES    "1 15787"                                  sim/hds.csv                                                                     
 P33                                      CONTINUOUS  HEAD                           ALL TIMES    "1 15825"                                  sim/hds.csv                                                                     
 PF                                       CONTINUOUS  HEAD                           ALL TIMES    "1 21048"                                  sim/hds.csv                                                                     
 PH                                       CONTINUOUS  HEAD                           ALL TIMES    "1 20781"                                  sim/hds.csv                                                                     
 PZHM1                                    CONTINUOUS  HEAD                           ALL TIMES    "1 14521"                                  sim/hds.csv                                                                     
 P26                                      CONTINUOUS  HEAD                           ALL TIMES    "1 13141"                                  sim/hds.csv                                                                     
 P27                                      CONTINUOUS  HEAD                           ALL TIMES    "1 8465"                                   sim/hds.csv                                                                     
 P28                                      CONTINUOUS  HEAD                           ALL TIMES    "1 8924"                                   sim/hds.csv                                                                     
 P29                                      CONTINUOUS  HEAD                           ALL TIMES    "1 4524"                                   sim/hds.csv                                                                     
 P30                                      CONTINUOUS  HEAD                           ALL TIMES    "1 5255"                                   sim/hds.csv                                                                     
 R20                                      CONTINUOUS  HEAD                           ALL TIMES    "1 10676"                                  sim/hds.csv                                                                     
 R21                                      CONTINUOUS  HEAD                           ALL TIMES    "1 10403"                                  sim/hds.csv                                                                     
 P34                                      CONTINUOUS  HEAD                           ALL TIMES    "1 15131"                                  sim/hds.csv                                                                     
 P37                                      CONTINUOUS  HEAD                           ALL TIMES    "1 15755"                                  sim/hds.csv                                                                     
 P38                                      CONTINUOUS  HEAD                           ALL TIMES    "1 15045"                                  sim/hds.csv                                                                     
 P39                                      CONTINUOUS  HEAD                           ALL TIMES    "1 9637"                                   sim/hds.csv                                                                     
 P40                                      CONTINUOUS  HEAD                           ALL TIMES    "1 9312"                                   sim/hds.csv                                                                     
 AP1                                      CONTINUOUS  HEAD                           ALL TIMES    "1 9702"                                   sim/hds.csv                                                                     
 RCK1                                     CONTINUOUS  HEAD                           ALL TIMES    "1 15900"                                  sim/hds.csv                                                                     
 RCK2                                     CONTINUOUS  HEAD                           ALL TIMES    "1 15199"                                  sim/hds.csv                                                                     
 P23                                      CONTINUOUS  HEAD                           ALL TIMES    "1 6409"                                   sim/hds.csv                                                                     
 ----------------------------------------------------------------------------------------------------------------------------------------------------------------------------------------------------------------------------


    BINARY GRID INFORMATION WILL BE WRITTEN TO:
      UNIT NUMBER: 1019
      FILE NAME: /srv/common/ptrack/case_study/pst/ml_04/./ml.disv.grb

 OPENED /srv/common/ptrack/case_study/pst/ml_04/./ml.disv.grb
 FILE TYPE:DATA(BINARY)   UNIT 1019   STATUS:REPLACE             
 FORMAT:UNFORMATTED            ACCESS:STREAM              
 ACTION:READWRITE           

      THE LAST TIME STEP WILL BE PRINTED
      THE LAST TIME STEP WILL BE PRINTED
 # File generated by Flopy version 3.3.5 on 04/28/2022 at 15:58:56.

 PROCESSING OC OPTIONS

    BUDGET INFORMATION WILL BE WRITTEN TO:
      UNIT NUMBER: 1020
      FILE NAME: ml.cbc

 OPENED ml.cbc
 FILE TYPE:DATA(BINARY)   UNIT 1020   STATUS:REPLACE             
 FORMAT:UNFORMATTED            ACCESS:STREAM              
 ACTION:READWRITE           

    HEAD INFORMATION WILL BE WRITTEN TO:
      UNIT NUMBER: 1021
      FILE NAME: ml.hds

 OPENED ml.hds
 FILE TYPE:DATA(BINARY)   UNIT 1021   STATUS:REPLACE             
 FORMAT:UNFORMATTED            ACCESS:STREAM              
 ACTION:READWRITE           

 END OF OC OPTIONS

The observation utility is active for "DRN_0"
 # File generated by Flopy version 3.3.5 on 04/28/2022 at 15:58:56.

Processing observation options:



start timestep kper="1" kstp="1" mode="normal"


 BEGIN READING OUTPUT CONTROL FOR STRESS PERIOD 1
      THE LAST TIME STEP WILL BE SAVED
      THE LAST TIME STEP WILL BE SAVED

 END READING OUTPUT CONTROL FOR STRESS PERIOD 1

 OPENED ext/wel_spd_1.txt
 FILE TYPE:OPEN/CLOSE   UNIT 1023   STATUS:OLD                 
 FORMAT:FORMATTED              ACCESS:SEQUENTIAL          
 ACTION:READ                


 OPENED ext/drn_spd_1.txt
 FILE TYPE:OPEN/CLOSE   UNIT 1024   STATUS:OLD                 
 FORMAT:FORMATTED              ACCESS:SEQUENTIAL          
 ACTION:READ                


 OPENED ext/riv_spd_1.txt
 FILE TYPE:OPEN/CLOSE   UNIT 1025   STATUS:OLD                 
 FORMAT:FORMATTED              ACCESS:SEQUENTIAL          
 ACTION:READ                


 OPENED ../com_ext/ghb_spd_1.txt
 FILE TYPE:OPEN/CLOSE   UNIT 1026   STATUS:OLD                 
 FORMAT:FORMATTED              ACCESS:SEQUENTIAL          
 ACTION:READ                


 OPENED ../com_ext/rech_spd_1.txt
 FILE TYPE:OPEN/CLOSE   UNIT 1027   STATUS:OLD                 
 FORMAT:FORMATTED              ACCESS:SEQUENTIAL          
 ACTION:READ                


 SLN_1 INNER ITERATION SUMMARY
 --------------------------------------------------------------------------------------------------------------------------------------
      TOTAL      OUTER      INNER                                                            MAXIMUM                                   
  ITERATION  ITERATION  ITERATION  MAXIMUM CHANGE      MAXIMUM CHANGE MODEL-(CELLID)        RESIDUAL    MAXIMUM RESIDUAL MODEL-(CELLID)
 --------------------------------------------------------------------------------------------------------------------------------------
          1          1          1      -11.850858                    1_GWF-(1,12785)      0.15902163                    1_GWF-(1,11171)
          2          1          2       7.7965139                    1_GWF-(1,26516)      0.21851129                    1_GWF-(1,10969)
          3          1          3       9.4363963                    1_GWF-(1,26565)      0.20941018                    1_GWF-(1,10968)
          4          1          4       8.7025881                    1_GWF-(1,26510)      0.18705000                    1_GWF-(1,10955)
          5          1          5       6.7435746                    1_GWF-(1,26647)      0.18286360                    1_GWF-(1,10869)
          6          1          6       7.1501729                    1_GWF-(1,26649)      0.14792635                    1_GWF-(1,11140)
          7          1          7       5.5192464                    1_GWF-(1,26622)      0.19723006                    1_GWF-(1,10969)
          8          1          8       4.4978479                    1_GWF-(1,26665)      0.15989210                    1_GWF-(1,10963)
          9          1          9       3.8532049                    1_GWF-(1,26647)      0.16266243                    1_GWF-(1,10956)
         10          1         10       4.5195618                    1_GWF-(1,26665)      0.16103232                    1_GWF-(1,10869)
         11          1         11       4.1570254                    1_GWF-(1,26544)      0.13987339                    1_GWF-(1,10969)
         12          1         12       3.0555286                    1_GWF-(1,26486)      0.13977020                    1_GWF-(1,10966)
         13          1         13       2.9827872                    1_GWF-(1,26622)      0.13095350                    1_GWF-(1,10962)
         14          1         14       2.4621659                    1_GWF-(1,26623)      0.12474846                    1_GWF-(1,10969)
         15          1         15       2.3104726                    1_GWF-(1,26622)      0.14186876                    1_GWF-(1,10968)
         16          1         16       1.5300716                    1_GWF-(1,26623)      0.12992721                    1_GWF-(1,10961)
         17          1         17      -1.5833500                    1_GWF-(1,26623)      0.13270524                    1_GWF-(1,10958)
         18          1         18       2.4825932                    1_GWF-(1,26588)      0.14340308                    1_GWF-(1,10969)
         19          1         19      -3.3984045                    1_GWF-(1,26588)      0.13965129                    1_GWF-(1,10968)
         20          1         20      -3.1857700                    1_GWF-(1,26543)      0.12885260                    1_GWF-(1,10963)
         21          1         21      -2.7286836                    1_GWF-(1,26544)      0.11801666                    1_GWF-(1,10958)
         22          1         22      -3.5311691                    1_GWF-(1,26486)      0.12823719                    1_GWF-(1,10969)
         23          1         23      -3.9850463                    1_GWF-(1,26487)      0.11218915                    1_GWF-(1,10965)
         24          1         24      -4.2614742                    1_GWF-(1,26486)      0.12125745                    1_GWF-(1,10963)
         25          1         25      -3.3874238                    1_GWF-(1,26487)      0.10537167                    1_GWF-(1,10955)
         26          1         26      -2.2780311                    1_GWF-(1,26588)  9.12596909E-02                    1_GWF-(1,10869)
         27          1         27       2.2170973                    1_GWF-(1,26420)      0.11279576                    1_GWF-(1,10965)
         28          1         28       1.8219704                    1_GWF-(1,26487)      0.11255548                    1_GWF-(1,10957)
         29          1         29       1.7977633                    1_GWF-(1,26420)      0.10181726                    1_GWF-(1,10872)
         30          1         30       1.9363598                    1_GWF-(1,26422)      0.10195779                    1_GWF-(1,10965)
         31          1         31       2.1981588                    1_GWF-(1,26350)      0.11472426                    1_GWF-(1,10960)
         32          1         32       2.5331821                    1_GWF-(1,26422)  9.66030610E-02                    1_GWF-(1,10958)
         33          1         33       2.4618866                    1_GWF-(1,26350) -7.70642844E-02                    1_GWF-(1,10960)
         34          1         34       2.3836383                    1_GWF-(1,26422)  6.51877865E-02                    1_GWF-(1,10966)
         35          1         35      -2.0310458                    1_GWF-(1,26422)  7.13532188E-02                    1_GWF-(1,10958)
         36          1         36      -1.5428954                    1_GWF-(1,26350)  6.12024834E-02                    1_GWF-(1,10968)
         37          1         37      -1.2311454                    1_GWF-(1,26422)  4.64680553E-02                    1_GWF-(1,10961)
         38          1         38     -0.94149591                    1_GWF-(1,24901) -5.27302630E-02                    1_GWF-(1,10967)
         39          1         39     -0.87004105                    1_GWF-(1,24895)  4.72148059E-02                    1_GWF-(1,10968)
         40          1         40      -1.0666913                    1_GWF-(1,26648)  4.36451026E-02                    1_GWF-(1,10961)
         41          1         41      -1.3952975                    1_GWF-(1,26649)  4.71416887E-02                    1_GWF-(1,10963)
         42          1         42      -1.4944949                    1_GWF-(1,26648) -4.52200792E-02                    1_GWF-(1,10991)
         43          1         43      -1.3039633                    1_GWF-(1,26586) -5.83282089E-02                    1_GWF-(1,11138)
         44          1         44      -1.1665730                    1_GWF-(1,26623)  4.39510436E-02                    1_GWF-(1,11140)
         45          1         45      0.98281597                    1_GWF-(1,26218) -5.24706352E-02                    1_GWF-(1,11140)
         46          1         46     -0.86189700                    1_GWF-(1,21319) -4.66591304E-02                    1_GWF-(1,11138)
         47          1         47      -1.1527472                    1_GWF-(1,26217)  4.78546435E-02                    1_GWF-(1,11139)
         48          1         48      -1.4864636                    1_GWF-(1,26218)  4.86882142E-02                    1_GWF-(1,14868)
         49          1         49      -1.5339652                    1_GWF-(1,26217) -4.92183539E-02                    1_GWF-(1,10990)
         50          1         50      -1.4105801                    1_GWF-(1,26218)  4.36164367E-02                    1_GWF-(1,14868)
         51          2          1      -40.847337                    1_GWF-(1,26519)     -0.14108630                    1_GWF-(1,26519)
         52          2          2      -15.788122                    1_GWF-(1,26513) -4.44557891E-02                    1_GWF-(1,26516)
         53          2          3      -7.5270633                    1_GWF-(1,26637)  3.50225775E-02                    1_GWF-(1,26516)
         54          2          4      -9.1640151                    1_GWF-(1,26665)  3.49017256E-02                    1_GWF-(1,14868)
         55          2          5      -4.8424090                    1_GWF-(1,26622)  2.83082056E-02                    1_GWF-(1,14869)
         56          2          6      -4.6469751                    1_GWF-(1,26589)  4.24293130E-02                    1_GWF-(1,14868)
         57          2          7      -3.7557444                    1_GWF-(1,26543)  3.96190369E-02                    1_GWF-(1,14869)
         58          2          8      -3.4901163                    1_GWF-(1,26486)  6.44199208E-02                    1_GWF-(1,14868)
         59          2          9      -2.3561667                    1_GWF-(1,26487)  4.19342726E-02                    1_GWF-(1,14869)
         60          2         10      -2.2302291                    1_GWF-(1,26350)  4.09465175E-02                    1_GWF-(1,14868)
         61          2         11      -1.8572576                    1_GWF-(1,26348)  1.04067239E-02                    1_GWF-(1,14868)
         62          2         12      -1.6235009                    1_GWF-(1,26217)  2.35477000E-02                    1_GWF-(1,14869)
         63          2         13      -1.0415224                    1_GWF-(1,26218)  3.69002685E-02                    1_GWF-(1,14868)
         64          2         14     -0.68470559                    1_GWF-(1,26649)  2.99524126E-02                    1_GWF-(1,14869)
         65          2         15     -0.72598505                    1_GWF-(1,26622)  2.55400311E-02                    1_GWF-(1,14868)
         66          2         16      0.88552032                    1_GWF-(1,26420)  2.46924702E-02                    1_GWF-(1,14868)
         67          2         17       1.1597864                    1_GWF-(1,26218)  2.79269579E-02                    1_GWF-(1,14869)
         68          2         18      0.95823030                    1_GWF-(1,26217)  3.90635787E-02                    1_GWF-(1,14868)
         69          2         19      0.83813575                    1_GWF-(1,26218)  2.49281976E-02                    1_GWF-(1,14869)
         70          2         20      0.65195874                    1_GWF-(1,26543)  2.29301552E-02                    1_GWF-(1,14868)
         71          2         21      0.92769586                    1_GWF-(1,26588)  1.49067471E-02                    1_GWF-(1,14868)
         72          2         22      0.97614276                    1_GWF-(1,26543)  2.42533539E-02                    1_GWF-(1,14869)
         73          2         23     -0.60452109                    1_GWF-(1,26218)  4.46054489E-02                    1_GWF-(1,14868)
         74          2         24     -0.80662388                    1_GWF-(1,26487)  3.57254156E-02                    1_GWF-(1,14869)
         75          2         25      -1.1020885                    1_GWF-(1,26486)  3.61514772E-02                    1_GWF-(1,14868)
         76          2         26      -1.0975229                    1_GWF-(1,26487)  1.19245340E-02                    1_GWF-(1,14868)
         77          2         27     -0.70862202                    1_GWF-(1,26588)  2.75194301E-02                    1_GWF-(1,14869)
         78          2         28     -0.34676637                    1_GWF-(1,26398)  4.67726050E-02                    1_GWF-(1,14868)
         79          2         29     -0.39062680                    1_GWF-(1,26327)  4.34385299E-02                    1_GWF-(1,14869)
         80          2         30      0.35674708                    1_GWF-(1,26420)  6.69330272E-02                    1_GWF-(1,14868)
         81          2         31     -0.25960868                    1_GWF-(1,26175)  6.12843270E-02                    1_GWF-(1,14869)
         82          2         32     -0.26639638                    1_GWF-(1,26674)  9.25834224E-02                    1_GWF-(1,14868)
         83          2         33     -0.24221416                    1_GWF-(1,26350) -7.70641136E-02                    1_GWF-(1,14868)
         84          2         34     -0.19778066                    1_GWF-(1,25803)  9.94815813E-02                    1_GWF-(1,14868)
         85          2         35      0.31408686                    1_GWF-(1,26422)  6.72278471E-02                    1_GWF-(1,14869)
         86          2         36      0.26544262                    1_GWF-(1,26350)  7.00891125E-02                    1_GWF-(1,14868)
         87          2         37      0.20123831                    1_GWF-(1,26422)  3.86284675E-02                    1_GWF-(1,14869)
         88          2         38      0.20360172                    1_GWF-(1,26544)  2.94203022E-02                    1_GWF-(1,14868)
         89          2         39     -0.21200483                    1_GWF-(1,26649)  2.80344620E-02                    1_GWF-(1,14868)
         90          2         40     -0.29783608                    1_GWF-(1,26486)  5.05394762E-02                    1_GWF-(1,14869)
         91          2         41      0.23248223                    1_GWF-(1,26422)  9.42188404E-02                    1_GWF-(1,14868)
         92          2         42     -0.23829236                    1_GWF-(1,26421)     -0.10937740                    1_GWF-(1,14868)
         93          2         43     -0.35571844                    1_GWF-(1,26350)      0.13665819                    1_GWF-(1,14868)
         94          2         44     -0.21754611                    1_GWF-(1,26486)     -0.12327098                    1_GWF-(1,14868)
         95          2         45     -0.25689529                    1_GWF-(1,26420)      0.12927597                    1_GWF-(1,14868)
         96          2         46     -0.17096380                    1_GWF-(1,26421) -9.21717876E-02                    1_GWF-(1,14868)
         97          2         47     -0.24278066                    1_GWF-(1,26350)  7.98940572E-02                    1_GWF-(1,14868)
         98          2         48     -0.17001645                    1_GWF-(1,26664) -5.43040571E-02                    1_GWF-(1,14868)
         99          2         49     -0.16091349                    1_GWF-(1,26649)  5.52081526E-02                    1_GWF-(1,14868)
        100          2         50     -0.19413835                    1_GWF-(1,26623) -4.10021151E-02                    1_GWF-(1,14868)
        101          3          1     -0.22298501                    1_GWF-(1,16215)  2.59612052E-02                    1_GWF-(1,14868)
        102          3          2      0.16808658                    1_GWF-(1,26586) -5.37948494E-02                    1_GWF-(1,14868)
        103          3          3      0.23597877                    1_GWF-(1,26623)  6.17495107E-02                    1_GWF-(1,14868)
        104          3          4      0.17121819                    1_GWF-(1,26649) -4.65536678E-02                    1_GWF-(1,14868)
        105          3          5     -0.18361242                    1_GWF-(1,16130)  6.16404787E-02                    1_GWF-(1,14868)
        106          3          6      0.15884008                    1_GWF-(1,16130) -6.71129301E-02                    1_GWF-(1,14868)
        107          3          7      0.12925623                    1_GWF-(1,26198)  6.71413189E-02                    1_GWF-(1,14868)
        108          3          8     -0.16250223                    1_GWF-(1,26674) -5.20617641E-02                    1_GWF-(1,14868)
        109          3          9      0.13757735                    1_GWF-(1,16130)  6.06545514E-02                    1_GWF-(1,14868)
        110          3         10      0.13354333                    1_GWF-(1,26350) -4.44185436E-02                    1_GWF-(1,14868)
        111          3         11      0.13298393                    1_GWF-(1,26486)  3.83968025E-02                    1_GWF-(1,14868)
        112          3         12     -0.15953678                    1_GWF-(1,26422)  1.92130885E-02                    1_GWF-(1,14869)
        113          3         13     -0.11510099                    1_GWF-(1,26350)  1.33123789E-02                    1_GWF-(1,14868)
        114          3         14      0.13599243                    1_GWF-(1,26350)  4.89360004E-03                    1_GWF-(1,14868)
        115          3         15     -0.12536904                    1_GWF-(1,26350)  1.12755494E-02                    1_GWF-(1,14869)
        116          3         16     -0.13071487                    1_GWF-(1,26422)  2.42628736E-02                    1_GWF-(1,14868)
        117          3         17      0.10454715                    1_GWF-(1,26422)  2.30847174E-02                    1_GWF-(1,14869)
        118          3         18      0.12137901                    1_GWF-(1,26350)  3.72878858E-02                    1_GWF-(1,14868)
        119          3         19 -7.99791498E-02                    1_GWF-(1,26350) -3.97879662E-02                    1_GWF-(1,14868)
        120          3         20  8.90208929E-02                    1_GWF-(1,26420)  4.78282365E-02                    1_GWF-(1,14868)
        121          3         21 -8.67069093E-02                    1_GWF-(1,26420) -4.21746511E-02                    1_GWF-(1,14868)
        122          3         22     -0.10004754                    1_GWF-(1,25297)  4.46439474E-02                    1_GWF-(1,14868)
        123          3         23     -0.12021559                    1_GWF-(1,25444) -3.35816378E-02                    1_GWF-(1,14868)
        124          3         24      0.12941205                    1_GWF-(1,26588)  2.88426599E-02                    1_GWF-(1,14868)
        125          3         25      0.16724092                    1_GWF-(1,26487)  8.60920980E-03                    1_GWF-(1,14869)
        126          3         26      0.20014370                    1_GWF-(1,26420)  9.89542731E-03                    1_GWF-(1,14869)
        127          3         27      0.21925005                    1_GWF-(1,26487)  2.27692280E-02                    1_GWF-(1,14868)
        128          3         28     -0.14066227                    1_GWF-(1,26487) -1.70816116E-02                    1_GWF-(1,14868)
        129          3         29     -0.16594728                    1_GWF-(1,26486)  1.60791130E-02                    1_GWF-(1,14868)
        130          3         30     -0.15703473                    1_GWF-(1,26588)  3.70580163E-03                    1_GWF-(1,14869)
        131          3         31     -0.15371714                    1_GWF-(1,26543)  5.25667616E-03                    1_GWF-(1,14869)
        132          3         32     -0.15114466                    1_GWF-(1,26588)  1.19454049E-02                    1_GWF-(1,14868)
        133          3         33      0.11967574                    1_GWF-(1,26588)  9.28362119E-03                    1_GWF-(1,14869)
        134          3         34  9.06413618E-02                    1_GWF-(1,26543)  1.04915298E-02                    1_GWF-(1,14868)
        135          3         35     -0.12079919                    1_GWF-(1,26665)  3.03447497E-03                    1_GWF-(1,14782)
        136          3         36      0.10953434                    1_GWF-(1,26665)  2.99885274E-03                    1_GWF-(1,14869)
        137          3         37      0.12965595                    1_GWF-(1,26666)  6.24963324E-03                    1_GWF-(1,14868)
        138          3         38      0.13496847                    1_GWF-(1,26622) -5.02648792E-03                    1_GWF-(1,14868)
        139          3         39  9.77652900E-02                    1_GWF-(1,26217)  4.33650438E-03                    1_GWF-(1,14868)
        140          3         40     -0.13927587                    1_GWF-(1,26665)  1.67155391E-03                    1_GWF-(1,14782)
        141          3         41      0.13572841                    1_GWF-(1,26665) -2.97734734E-03                    1_GWF-(1,14868)
        142          3         42     -0.15528537                    1_GWF-(1,26665)  5.14630467E-03                    1_GWF-(1,14868)
        143          3         43     -0.13773083                    1_GWF-(1,26666) -5.08121182E-03                    1_GWF-(1,14868)
        144          3         44      0.12686982                    1_GWF-(1,26543)  5.24510494E-03                    1_GWF-(1,14868)
        145          3         45      0.14717571                    1_GWF-(1,26649)  3.67834625E-03                    1_GWF-(1,14782)
        146          3         46      0.15075367                    1_GWF-(1,26648)  5.53203456E-03                    1_GWF-(1,14867)
        147          3         47  9.13307190E-02                    1_GWF-(1,26664) -4.60616602E-03                    1_GWF-(1,14867)
        148          3         48  9.45164101E-02                    1_GWF-(1,26217)  4.15597141E-03                    1_GWF-(1,14867)
        149          3         49     -0.10459558                    1_GWF-(1,26648) -4.99017059E-03                    1_GWF-(1,14867)
        150          3         50     -0.10609632                    1_GWF-(1,26218)  4.22143497E-03                    1_GWF-(1,14867)
        151          4          1 -6.85270472E-02                    1_GWF-(1,26217) -3.26436033E-03                    1_GWF-(1,14867)
        152          4          2 -6.98828631E-02                    1_GWF-(1,26218)  3.20104018E-03                    1_GWF-(1,14867)
        153          4          3 -7.63934987E-02                    1_GWF-(1,26217)  2.43429359E-03                    1_GWF-(1,14782)
        154          4          4 -7.70043891E-02                    1_GWF-(1,26218)  3.00679221E-03                    1_GWF-(1,14867)
        155          4          5 -5.55977418E-02                    1_GWF-(1,26422)  1.93004193E-03                    1_GWF-(1,14782)
        156          4          6 -5.04977767E-02                    1_GWF-(1,26218)  1.95869557E-03                    1_GWF-(1,14868)
        157          4          7 -3.85695829E-02                    1_GWF-(1,26485) -1.72248661E-03                    1_GWF-(1,14868)
        158          4          8 -5.23209569E-02                    1_GWF-(1,26665)  1.85443924E-03                    1_GWF-(1,14868)
        159          4          9 -6.30872406E-02                    1_GWF-(1,26666) -1.80443715E-03                    1_GWF-(1,14868)
        160          4         10 -6.24424251E-02                    1_GWF-(1,26665) -1.17579905E-03                    1_GWF-(1,14867)
        161          4         11  6.42413670E-02                    1_GWF-(1,26665)  5.79944544E-04                    1_GWF-(1,10962)
        162          4         12  3.90274978E-02                    1_GWF-(1,26622) -1.24202913E-03                    1_GWF-(1,14868)
        163          4         13  3.92515544E-02                    1_GWF-(1,26623)  1.68048091E-03                    1_GWF-(1,14868)
        164          4         14  5.31545216E-02                    1_GWF-(1,26622)  1.20399765E-03                    1_GWF-(1,14869)
        165          4         15  4.53630099E-02                    1_GWF-(1,26623)  7.19028621E-04                    1_GWF-(1,14868)
        166          4         16  3.62535923E-02                    1_GWF-(1,26665)  9.84026830E-04                    1_GWF-(1,14868)
        167          4         17  2.62443788E-02                    1_GWF-(1,26588) -1.36592452E-03                    1_GWF-(1,14868)
        168          4         18  2.11422179E-02                    1_GWF-(1,26543)  1.54512494E-03                    1_GWF-(1,14868)
        169          4         19 -2.50149454E-02                    1_GWF-(1,26543) -1.55074701E-03                    1_GWF-(1,14868)
        170          4         20 -3.46723972E-02                    1_GWF-(1,26588)  6.93147144E-04                    1_GWF-(1,14868)
        171          4         21 -3.39404320E-02                    1_GWF-(1,26543)  1.04193831E-03                    1_GWF-(1,14868)
        172          4         22 -2.52606489E-02                    1_GWF-(1,26588)  1.77388017E-03                    1_GWF-(1,14869)
        173          4         23 -3.18056910E-02                    1_GWF-(1,26486)  2.79412641E-03                    1_GWF-(1,14868)
        174          4         24 -3.67024661E-02                    1_GWF-(1,26487)  2.02729625E-03                    1_GWF-(1,14869)
        175          4         25 -3.15512103E-02                    1_GWF-(1,26420)  9.80494753E-04                    1_GWF-(1,14868)
        176          4         26 -2.70365416E-02                    1_GWF-(1,26487)  1.68383417E-03                    1_GWF-(1,14868)
        177          4         27 -1.98834290E-02                    1_GWF-(1,26420) -2.77710683E-03                    1_GWF-(1,14868)
        178          4         28 -1.32413967E-02                    1_GWF-(1,26421)  4.52889322E-03                    1_GWF-(1,14868)
        179          4         29  1.19329199E-02                    1_GWF-(1,26543) -4.95325606E-03                    1_GWF-(1,14868)
        180          4         30  1.41734290E-02                    1_GWF-(1,26420)  5.61302784E-03                    1_GWF-(1,14868)
        181          4         31  1.99018989E-02                    1_GWF-(1,26422) -4.71556669E-03                    1_GWF-(1,14868)
        182          4         32  1.98541951E-02                    1_GWF-(1,26350)  5.57172710E-03                    1_GWF-(1,14868)
        183          4         33  1.92786890E-02                    1_GWF-(1,26421) -3.76718302E-03                    1_GWF-(1,14868)
        184          4         34  1.86146051E-02                    1_GWF-(1,26350)  4.09577608E-03                    1_GWF-(1,14868)
        185          4         35  1.92610265E-02                    1_GWF-(1,26422)  2.10922786E-03                    1_GWF-(1,14869)
        186          4         36  1.11742573E-02                    1_GWF-(1,26350)  1.79152826E-03                    1_GWF-(1,14867)
        187          4         37 -1.72718201E-02                    1_GWF-(1,26350)  1.53529795E-03                    1_GWF-(1,14782)
        188          4         38 -1.55736140E-02                    1_GWF-(1,26422)  1.99276022E-03                    1_GWF-(1,14867)
        189          4         39 -1.46477694E-02                    1_GWF-(1,26544)  2.19438952E-03                    1_GWF-(1,14868)
        190          4         40 -1.55715530E-02                    1_GWF-(1,26486)  2.23562990E-03                    1_GWF-(1,14869)
        191          4         41 -1.24826381E-02                    1_GWF-(1,26350)  3.12806859E-03                    1_GWF-(1,14868)
        192          4         42 -9.76087315E-03                    1_GWF-(1,26422) -2.88799590E-03                    1_GWF-(1,14868)
        193          4         43 -9.17051365E-03                    1_GWF-(1,26544)  3.46964367E-03                    1_GWF-(1,14868)
        194          4         44 -7.22322138E-03                    1_GWF-(1,26486) -3.05305065E-03                    1_GWF-(1,14868)
        195          4         45 -6.26117020E-03                    1_GWF-(1,16130)  3.33854547E-03                    1_GWF-(1,14868)
        196          4         46  6.77616630E-03                    1_GWF-(1,16130) -3.18197384E-03                    1_GWF-(1,14868)
        197          4         47  8.74856171E-03                    1_GWF-(1,26672)  3.56217419E-03                    1_GWF-(1,14868)
        198          4         48 -6.21820850E-03                    1_GWF-(1,26623) -3.39510985E-03                    1_GWF-(1,14868)
        199          4         49  7.69533180E-03                    1_GWF-(1,16130)  2.44508883E-03                    1_GWF-(1,14868)
        200          4         50  7.95282415E-03                    1_GWF-(1,26326) -2.45519720E-03                    1_GWF-(1,14868)
        201          5          1 -1.70246030E-02                    1_GWF-(1,11933)  1.73560549E-03                    1_GWF-(1,14868)
        202          5          2 -8.70582650E-03                    1_GWF-(1,11938) -2.18539657E-03                    1_GWF-(1,14868)
        203          5          3 -5.04322115E-03                    1_GWF-(1,26673)  2.37556697E-03                    1_GWF-(1,14868)
        204          5          4 -5.60438863E-03                    1_GWF-(1,26672) -2.51536871E-03                    1_GWF-(1,14868)
        205          5          5  4.97003939E-03                    1_GWF-(1,26672)  2.59718907E-03                    1_GWF-(1,14868)
        206          5          6 -3.38283947E-03                    1_GWF-(1,20231) -2.38937347E-03                    1_GWF-(1,14868)
        207          5          7 -4.26458191E-03                    1_GWF-(1,26350)  2.65658137E-03                    1_GWF-(1,14868)
        208          5          8 -5.55827648E-03                    1_GWF-(1,26422) -2.32902710E-03                    1_GWF-(1,14868)
        209          5          9 -3.81432326E-03                    1_GWF-(1,26350)  2.43282817E-03                    1_GWF-(1,14868)
        210          5         10  4.82627234E-03                    1_GWF-(1,26350) -1.78167423E-03                    1_GWF-(1,14868)
        211          5         11  6.69476234E-03                    1_GWF-(1,26486)  1.79266928E-03                    1_GWF-(1,14868)
        212          5         12 -6.73404304E-03                    1_GWF-(1,26422)  1.04802528E-03                    1_GWF-(1,14869)
        213          5         13  8.03926448E-03                    1_GWF-(1,26422)  6.57392877E-04                    1_GWF-(1,14782)
        214          5         14  8.56712960E-03                    1_GWF-(1,26350)  5.90992081E-04                    1_GWF-(1,14867)
        215          5         15 -6.94701427E-03                    1_GWF-(1,26544)  7.53262146E-04                    1_GWF-(1,14869)
        216          5         16 -8.42590393E-03                    1_GWF-(1,26486)  1.35329837E-03                    1_GWF-(1,14868)
        217          5         17 -8.14117846E-03                    1_GWF-(1,26588)  7.35072548E-04                    1_GWF-(1,14869)
        218          5         18 -7.52435768E-03                    1_GWF-(1,26589)  3.94537421E-04                    1_GWF-(1,14782)
        219          5         19 -8.29754722E-03                    1_GWF-(1,26422)  1.28656908E-03                    1_GWF-(1,14868)
        220          5         20 -9.22943967E-03                    1_GWF-(1,26350) -1.66755851E-03                    1_GWF-(1,14868)
        221          5         21 -7.11848139E-03                    1_GWF-(1,26422)  2.43151643E-03                    1_GWF-(1,14868)
        222          5         22 -4.65824404E-03                    1_GWF-(1,26420) -2.49767877E-03                    1_GWF-(1,14868)
        223          5         23 -4.89627379E-03                    1_GWF-(1,25443)  2.65151474E-03                    1_GWF-(1,14868)
        224          5         24  5.56512269E-03                    1_GWF-(1,26486) -1.98341658E-03                    1_GWF-(1,14868)
        225          5         25  5.20143874E-03                    1_GWF-(1,26487)  1.52481407E-03                    1_GWF-(1,14868)
        226          5         26  6.28775621E-03                    1_GWF-(1,26486)  4.00048565E-04                    1_GWF-(1,14869)
        227          5         27 -7.13127605E-03                    1_GWF-(1,26649)  6.76081513E-04                    1_GWF-(1,14869)
        228          5         28 -7.01526508E-03                    1_GWF-(1,26622)  1.50742674E-03                    1_GWF-(1,14868)
        229          5         29 -4.96692229E-03                    1_GWF-(1,26649) -1.27143173E-03                    1_GWF-(1,14868)
        230          5         30  4.30324596E-03                    1_GWF-(1,26649)  1.25829371E-03                    1_GWF-(1,14868)
        231          5         31 -3.73659812E-03                    1_GWF-(1,26420) -7.26046178E-04                    1_GWF-(1,14868)
        232          5         32  3.70247338E-03                    1_GWF-(1,26665)  6.15195975E-04                    1_GWF-(1,14868)
        233          5         33  3.85732628E-03                    1_GWF-(1,26666) -3.05103882E-04                    1_GWF-(1,14867)
        234          5         34  5.19709017E-03                    1_GWF-(1,26622)  5.54298541E-04                    1_GWF-(1,14867)
        235          5         35 -6.89400007E-03                    1_GWF-(1,26665)  4.21473740E-04                    1_GWF-(1,14782)
        236          5         36 -5.37475692E-03                    1_GWF-(1,26666)  3.80485604E-04                    1_GWF-(1,14869)
        237          5         37 -4.73609611E-03                    1_GWF-(1,26588)  4.95591299E-04                    1_GWF-(1,14868)
        238          5         38 -4.20072300E-03                    1_GWF-(1,26589) -3.71660563E-04                    1_GWF-(1,14867)
        239          5         39 -5.30886030E-03                    1_GWF-(1,26588)  6.22281299E-04                    1_GWF-(1,14867)
        240          5         40 -4.75907267E-03                    1_GWF-(1,26665) -6.07653011E-04                    1_GWF-(1,14867)
        241          5         41  6.90676321E-03                    1_GWF-(1,26665)  3.83097620E-04                    1_GWF-(1,14867)
        242          5         42  6.35472307E-03                    1_GWF-(1,26666)  2.81621533E-04                    1_GWF-(1,14868)
        243          5         43  5.77173432E-03                    1_GWF-(1,26589) -5.14387442E-04                    1_GWF-(1,14867)
        244          5         44  4.54178000E-03                    1_GWF-(1,26588)  7.64697584E-04                    1_GWF-(1,14867)
        245          5         45  3.25532801E-03                    1_GWF-(1,26665) -8.91585707E-04                    1_GWF-(1,14867)
        246          5         46  2.69403832E-03                    1_GWF-(1,26666)  1.04975720E-03                    1_GWF-(1,14867)
        247          5         47  3.13035780E-03                    1_GWF-(1,26218) -9.53828703E-04                    1_GWF-(1,14867)
        248          5         48  3.82495347E-03                    1_GWF-(1,26217)  9.66452296E-04                    1_GWF-(1,14867)
        249          5         49  3.19593171E-03                    1_GWF-(1,26218) -8.75555620E-04                    1_GWF-(1,14867)
        250          5         50  2.61906674E-03                    1_GWF-(1,26217)  8.06205936E-04                    1_GWF-(1,14867)
        251          6          1 -2.70621502E-03                    1_GWF-(1,26217) -7.27573003E-04                    1_GWF-(1,14867)
        252          6          2 -3.18530199E-03                    1_GWF-(1,26218)  7.27911635E-04                    1_GWF-(1,14867)
        253          6          3 -3.61417545E-03                    1_GWF-(1,26217) -5.87139469E-04                    1_GWF-(1,14867)
        254          6          4 -3.34851707E-03                    1_GWF-(1,26218)  5.74465801E-04                    1_GWF-(1,14867)
        255          6          5 -2.65276114E-03                    1_GWF-(1,26422) -4.05256689E-04                    1_GWF-(1,14867)
        256          6          6 -2.15122537E-03                    1_GWF-(1,26218)  3.48348608E-04                    1_GWF-(1,14867)
        257          6          7 -1.95066525E-03                    1_GWF-(1,26486) -1.56216782E-04                    1_GWF-(1,14867)
        258          6          8 -2.91965602E-03                    1_GWF-(1,26665)  1.44831705E-04                    1_GWF-(1,14868)
        259          6          9 -2.94909822E-03                    1_GWF-(1,26666)  2.05087385E-04                    1_GWF-(1,14867)
        260          6         10 -2.78445069E-03                    1_GWF-(1,26665) -2.04914270E-04                    1_GWF-(1,14867)
        261          6         11  2.48936866E-03                    1_GWF-(1,26665)  1.51888145E-04                    1_GWF-(1,14867)
        262          6         12  2.47582239E-03                    1_GWF-(1,26588)  9.39741937E-05                    1_GWF-(1,14869)
        263          6         13  1.99816088E-03                    1_GWF-(1,26589)  1.50181444E-04                    1_GWF-(1,14868)
        264          6         14  2.04870406E-03                    1_GWF-(1,26588)  1.62822030E-04                    1_GWF-(1,14867)
        265          6         15  2.01463545E-03                    1_GWF-(1,26543)  1.66985267E-04                    1_GWF-(1,14782)
        266          6         16  2.11324189E-03                    1_GWF-(1,26588)  1.23877019E-04                    1_GWF-(1,14867)
        267          6         17  1.76504427E-03                    1_GWF-(1,26543)  5.77328975E-05                    1_GWF-(1,14869)
        268          6         18  1.03440084E-03                    1_GWF-(1,26588)  1.12095149E-04                    1_GWF-(1,14868)
        269          6         19  1.00189886E-03                    1_GWF-(1,24661)  1.59430960E-04                    1_GWF-(1,14867)
        270          6         20  1.05084359E-03                    1_GWF-(1,24664)  2.31686761E-04                    1_GWF-(1,14868)
        271          6         21  9.86889040E-04                    1_GWF-(1,24689)  2.73111699E-04                    1_GWF-(1,14867)
        272          6         22 -1.11082344E-03                    1_GWF-(1,26648)  2.56029180E-04                    1_GWF-(1,14868)
        273          6         23 -1.52165659E-03                    1_GWF-(1,26649)  1.35783346E-04                    1_GWF-(1,14869)
        274          6         24 -1.81106816E-03                    1_GWF-(1,26622)  9.65742306E-05                    1_GWF-(1,14867)
        275          6         25 -1.45453937E-03                    1_GWF-(1,26623)  1.90394677E-04                    1_GWF-(1,14868)
        276          6         26 -9.52263898E-04                    1_GWF-(1,26217)  2.37726814E-04                    1_GWF-(1,14867)
        277          6         27 -9.18813455E-04                    1_GWF-(1,26421)  3.21308423E-04                    1_GWF-(1,14868)
        278          6         28  9.18260892E-04                    1_GWF-(1,26588) -2.87678669E-04                    1_GWF-(1,14868)
        279          6         29  1.06010401E-03                    1_GWF-(1,26420)  2.81356172E-04                    1_GWF-(1,14868)
        280          6         30  1.18774817E-03                    1_GWF-(1,26422)  1.20642568E-04                    1_GWF-(1,14869)
        281          6         31  1.55711056E-03                    1_GWF-(1,26486)  1.29923535E-04                    1_GWF-(1,14867)
        282          6         32  1.60313492E-03                    1_GWF-(1,26487)  2.29615340E-04                    1_GWF-(1,14868)
        283          6         33  1.34579819E-03                    1_GWF-(1,26486)  2.11876888E-04                    1_GWF-(1,14869)
        284          6         34  8.92964735E-04                    1_GWF-(1,26544)  2.60778894E-04                    1_GWF-(1,14868)
        285          6         35  9.97804236E-04                    1_GWF-(1,26422) -1.50934556E-04                    1_GWF-(1,14868)
        286          6         36 -7.70087322E-04                    1_GWF-(1,26422)  1.50487532E-04                    1_GWF-(1,14867)
        287          6         37 -1.17321852E-03                    1_GWF-(1,26350)  1.35592208E-04                    1_GWF-(1,14782)
        288          6         38 -1.07935821E-03                    1_GWF-(1,26422)  1.76625755E-04                    1_GWF-(1,14867)
        289          6         39 -7.18858516E-04                    1_GWF-(1,26544)  1.21371906E-04                    1_GWF-(1,14782)
        290          6         40 -6.66931600E-04                    1_GWF-(1,26422)  1.27506608E-04                    1_GWF-(1,14869)
        291          6         41 -6.50803133E-04                    1_GWF-(1,26350)  1.91478717E-04                    1_GWF-(1,14868)
        292          6         42 -4.35983347E-04                    1_GWF-(1,26422) -1.97419378E-04                    1_GWF-(1,14868)
        293          6         43  4.98908110E-04                    1_GWF-(1,26422)  2.61459314E-04                    1_GWF-(1,14868)
        294          6         44  5.20630309E-04                    1_GWF-(1,26350) -2.29418405E-04                    1_GWF-(1,14868)
        295          6         45  3.20302776E-04                    1_GWF-(1,26486)  2.51520328E-04                    1_GWF-(1,14868)
        296          6         46 -3.04745987E-04                    1_GWF-(1,25784) -2.26801599E-04                    1_GWF-(1,14868)
        297          6         47 -3.64866989E-04                    1_GWF-(1,25763)  1.99039088E-04                    1_GWF-(1,14868)
        298          6         48 -3.41346910E-04                    1_GWF-(1,25765) -1.60598017E-04                    1_GWF-(1,14868)
        299          6         49  3.16176573E-04                    1_GWF-(1,11934)  1.27421753E-04                    1_GWF-(1,14868)
        300          6         50  5.25529274E-04                    1_GWF-(1,11933) -1.29600615E-04                    1_GWF-(1,14868)
        301          7          1 -5.33825875E-04                    1_GWF-(1,11933)  1.15553379E-04                    1_GWF-(1,14868)
        302          7          2 -3.58307302E-04                    1_GWF-(1,11938) -1.35732154E-04                    1_GWF-(1,14868)
        303          7          3 -2.56692045E-04                    1_GWF-(1,26397)  1.53774165E-04                    1_GWF-(1,14868)
        304          7          4  3.23253947E-04                    1_GWF-(1,26217) -1.78379593E-04                    1_GWF-(1,14868)
        305          7          5  2.89200314E-04                    1_GWF-(1,26422)  1.97447840E-04                    1_GWF-(1,14868)
        306          7          6 -3.11229790E-04                    1_GWF-(1,26486) -1.92913888E-04                    1_GWF-(1,14868)
        307          7          7 -3.84079106E-04                    1_GWF-(1,26350)  2.08312067E-04                    1_GWF-(1,14868)
        308          7          8 -4.61627756E-04                    1_GWF-(1,26422) -1.62920309E-04                    1_GWF-(1,14868)
        309          7          9  3.00391292E-04                    1_GWF-(1,26588)  1.49305845E-04                    1_GWF-(1,14868)
        310          7         10  3.02025725E-04                    1_GWF-(1,26350)  9.06048165E-05                    1_GWF-(1,14869)
        311          7         11 -3.27544890E-04                    1_GWF-(1,26350)  7.22884752E-05                    1_GWF-(1,14782)
        312          7         12 -4.09375564E-04                    1_GWF-(1,26588)  9.25658475E-05                    1_GWF-(1,14867)
        313          7         13  6.30001043E-04                    1_GWF-(1,26588)  4.88650743E-05                    1_GWF-(1,14782)
        314          7         14 -5.90360823E-04                    1_GWF-(1,26588)  8.08654710E-05                    1_GWF-(1,14868)
        315          7         15 -6.09100469E-04                    1_GWF-(1,26543)  6.65572975E-05                    1_GWF-(1,14867)
        316          7         16 -4.79641879E-04                    1_GWF-(1,26544)  7.46547970E-05                    1_GWF-(1,14782)
        317          7         17 -5.35915506E-04                    1_GWF-(1,26486)  8.51268104E-05                    1_GWF-(1,14867)
        318          7         18 -4.95332579E-04                    1_GWF-(1,26487)  7.12123260E-05                    1_GWF-(1,14869)
        319          7         19 -5.36724046E-04                    1_GWF-(1,26486)  1.00968897E-04                    1_GWF-(1,14868)
        320          7         20 -5.54907718E-04                    1_GWF-(1,26487)  5.71134845E-05                    1_GWF-(1,14867)
        321          7         21 -5.34605756E-04                    1_GWF-(1,26420) -5.75464640E-05                    1_GWF-(1,14867)
        322          7         22 -5.10167884E-04                    1_GWF-(1,26422)  7.16100894E-05                    1_GWF-(1,14868)
        323          7         23 -4.20414724E-04                    1_GWF-(1,26350) -9.37667664E-05                    1_GWF-(1,14868)
        324          7         24  3.32625109E-04                    1_GWF-(1,26420)  1.14615266E-04                    1_GWF-(1,14868)
        325          7         25  4.42441358E-04                    1_GWF-(1,26486) -8.28031239E-05                    1_GWF-(1,14868)
        326          7         26  3.80634134E-04                    1_GWF-(1,26487)  4.71839166E-05                    1_GWF-(1,14868)
        327          7         27  4.44290856E-04                    1_GWF-(1,26420)  3.88537955E-05                    1_GWF-(1,14868)
        328          7         28  4.39757387E-04                    1_GWF-(1,26422) -7.50255850E-05                    1_GWF-(1,14868)
        329          7         29  3.83488003E-04                    1_GWF-(1,26420)  1.15474616E-04                    1_GWF-(1,14868)
        330          7         30 -2.95227613E-04                    1_GWF-(1,26420) -1.03719811E-04                    1_GWF-(1,14868)
        331          7         31 -2.54802653E-04                    1_GWF-(1,24665)  9.97175556E-05                    1_GWF-(1,14868)
        332          7         32 -2.39019027E-04                    1_GWF-(1,24661) -7.73409720E-05                    1_GWF-(1,14868)
        333          7         33 -2.38896668E-04                    1_GWF-(1,26218)  6.84592884E-05                    1_GWF-(1,14868)
        334          7         34 -2.27855184E-04                    1_GWF-(1,26217)  5.23779857E-05                    1_GWF-(1,14867)
        335          7         35 -2.44417472E-04                    1_GWF-(1,26175)  5.08641408E-05                    1_GWF-(1,14868)
        336          7         36 -2.57544692E-04                    1_GWF-(1,26663)  2.98697781E-05                    1_GWF-(1,14869)
        337          7         37 -1.85224464E-04                    1_GWF-(1,26672)  2.92611881E-05                    1_GWF-(1,14868)
        338          7         38  2.62766028E-04                    1_GWF-(1,26674)  1.45558880E-05                    1_GWF-(1,14782)
        339          7         39 -2.79066096E-04                    1_GWF-(1,26588)  3.15800076E-05                    1_GWF-(1,14867)
        340          7         40 -3.26298421E-04                    1_GWF-(1,26666) -3.07494087E-05                    1_GWF-(1,14867)
        341          7         41 -3.96519165E-04                    1_GWF-(1,26665)  2.79679152E-05                    1_GWF-(1,14867)
        342          7         42  3.59417118E-04                    1_GWF-(1,26665)  2.06061229E-05                    1_GWF-(1,14868)
        343          7         43 -3.29599552E-04                    1_GWF-(1,26665)  1.70765288E-05                    1_GWF-(1,14782)
        344          7         44  2.37771341E-04                    1_GWF-(1,26542)  3.55100913E-05                    1_GWF-(1,14867)
        345          7         45  1.91332002E-04                    1_GWF-(1,26623) -4.01745533E-05                    1_GWF-(1,14867)
        346          7         46  1.98675459E-04                    1_GWF-(1,26422)  5.35116004E-05                    1_GWF-(1,14867)
        347          7         47  2.38498051E-04                    1_GWF-(1,26218) -4.98378126E-05                    1_GWF-(1,14867)
        348          7         48  2.91766613E-04                    1_GWF-(1,26217)  5.84150392E-05                    1_GWF-(1,14867)
        349          7         49  2.39200014E-04                    1_GWF-(1,26218) -5.44616664E-05                    1_GWF-(1,14867)
        350          7         50  1.71918558E-04                    1_GWF-(1,26217)  5.47479438E-05                    1_GWF-(1,14867)
        351          8          1 -1.58002898E-04                    1_GWF-(1,26217) -5.06713724E-05                    1_GWF-(1,14867)
        352          8          2 -2.00372856E-04                    1_GWF-(1,26218)  5.09758106E-05                    1_GWF-(1,14867)
        353          8          3 -2.30852923E-04                    1_GWF-(1,26217) -4.11258060E-05                    1_GWF-(1,14867)
        354          8          4 -1.99407586E-04                    1_GWF-(1,26218)  4.09568510E-05                    1_GWF-(1,14867)
        355          8          5 -1.64827281E-04                    1_GWF-(1,26422) -2.86353380E-05                    1_GWF-(1,14867)
        356          8          6 -1.45319798E-04                    1_GWF-(1,26486)  2.27246577E-05                    1_GWF-(1,14867)
        357          8          7 -1.70720318E-04                    1_GWF-(1,26665)  7.47299263E-06                    1_GWF-(1,14782)
        358          8          8 -1.87948010E-04                    1_GWF-(1,26543)  8.37371068E-06                    1_GWF-(1,14782)
        359          8          9 -2.25962243E-04                    1_GWF-(1,26588)  1.83095098E-05                    1_GWF-(1,14867)
        360          8         10 -1.71190449E-04                    1_GWF-(1,26622) -1.19269335E-05                    1_GWF-(1,14867)
        361          8         11  1.53767167E-04                    1_GWF-(1,26622)  7.83465093E-06                    1_GWF-(1,14868)
        362          8         12  1.93911292E-04                    1_GWF-(1,26623)  6.70055318E-06                    1_GWF-(1,14869)
        363          8         13  1.46899970E-04                    1_GWF-(1,26622)  9.33764580E-06                    1_GWF-(1,14782)
        364          8         14  1.28528779E-04                    1_GWF-(1,26623)  1.17685186E-05                    1_GWF-(1,14867)
        365          8         15  1.36764256E-04                    1_GWF-(1,26622)  6.73401820E-06                    1_GWF-(1,14782)
        366          8         16  1.21319643E-04                    1_GWF-(1,26666)  8.75747715E-06                    1_GWF-(1,14868)
        367          8         17  9.48036751E-05                    1_GWF-(1,26486)  7.59431843E-06                    1_GWF-(1,14869)
        368          8         18  8.52255159E-05                    1_GWF-(1,26487)  9.15275785E-06                    1_GWF-(1,14868)
        369          8         19  1.07320988E-04                    1_GWF-(1,26486)  8.49924527E-06                    1_GWF-(1,14867)
        370          8         20 -1.13918382E-04                    1_GWF-(1,26486)  2.68795665E-06                    1_GWF-(1,10968)
        371          8         21 -1.08392314E-04                    1_GWF-(1,26622)  8.64146861E-06                    1_GWF-(1,14868)
        372          8         22 -7.99779261E-05                    1_GWF-(1,26649)  1.24914679E-05                    1_GWF-(1,14867)
        373          8         23 -5.77398655E-05                    1_GWF-(1,26487)  1.52513407E-05                    1_GWF-(1,14868)
        374          8         24 -6.51704493E-05                    1_GWF-(1,26217)  1.69272494E-05                    1_GWF-(1,14867)
        375          8         25 -8.51352270E-05                    1_GWF-(1,26218)  1.90927115E-05                    1_GWF-(1,14868)
        376          8         26 -6.33831352E-05                    1_GWF-(1,26217) -1.87924284E-05                    1_GWF-(1,14868)
        377          8         27 -6.48331513E-05                    1_GWF-(1,26421)  2.33532480E-05                    1_GWF-(1,14868)
        378          8         28  6.45762315E-05                    1_GWF-(1,26588) -2.11992243E-05                    1_GWF-(1,14868)
        379          8         29  5.01021320E-05                    1_GWF-(1,26350)  2.10460249E-05                    1_GWF-(1,14868)
        380          8         30  7.46077129E-05                    1_GWF-(1,26486) -1.47541050E-05                    1_GWF-(1,14868)
        381          8         31 -8.27511304E-05                    1_GWF-(1,26588)  1.11735360E-05                    1_GWF-(1,14868)
        382          8         32  7.94634231E-05                    1_GWF-(1,26588)  8.70313522E-06                    1_GWF-(1,14782)
        383          8         33  7.52015852E-05                    1_GWF-(1,26589)  8.91050490E-06                    1_GWF-(1,14869)
        384          8         34  8.02936076E-05                    1_GWF-(1,26588)  1.41673950E-05                    1_GWF-(1,14868)
        385          8         35  5.91462042E-05                    1_GWF-(1,26422) -9.30248475E-06                    1_GWF-(1,14868)
        386          8         36 -6.22651425E-05                    1_GWF-(1,26422)  9.19292708E-06                    1_GWF-(1,14868)
        387          8         37 -8.47708135E-05                    1_GWF-(1,26350)  8.49068794E-06                    1_GWF-(1,14782)
        388          8         38 -7.71198671E-05                    1_GWF-(1,26422)  1.10751782E-05                    1_GWF-(1,14867)
        389          8         39 -4.61760681E-05                    1_GWF-(1,26350)  7.70473699E-06                    1_GWF-(1,14782)
        390          8         40 -4.14373062E-05                    1_GWF-(1,26422)  8.74656468E-06                    1_GWF-(1,14869)
        391          8         41 -3.84411731E-05                    1_GWF-(1,26350)  1.33081078E-05                    1_GWF-(1,14868)
        392          8         42 -2.45416055E-05                    1_GWF-(1,26588) -1.41000648E-05                    1_GWF-(1,14868)
        393          8         43  4.13809317E-05                    1_GWF-(1,26422)  1.79116934E-05                    1_GWF-(1,14868)
        394          8         44  3.85464284E-05                    1_GWF-(1,26350) -1.53605260E-05                    1_GWF-(1,14868)
        395          8         45  2.14848464E-05                    1_GWF-(1,26487)  1.40680568E-05                    1_GWF-(1,14868)
        396          8         46  3.13403288E-05                    1_GWF-(1,26486) -7.52770503E-06                    1_GWF-(1,14868)
        397          8         47  3.80581201E-05                    1_GWF-(1,26649) -2.58610715E-06                    1_GWF-(1,14868)
        398          8         48  3.93863547E-05                    1_GWF-(1,26622)  9.99769562E-06                    1_GWF-(1,14868)
        399          8         49 -4.09357150E-05                    1_GWF-(1,26486) -1.27350324E-05                    1_GWF-(1,14868)
        400          8         50 -2.39455172E-05                    1_GWF-(1,26544)  1.32593314E-05                    1_GWF-(1,14868)
        401          9          1  2.65147216E-05                    1_GWF-(1,26544) -1.78059507E-05                    1_GWF-(1,14868)
        402          9          2  4.00025142E-05                    1_GWF-(1,26486)  1.12462093E-05                    1_GWF-(1,14868)
        403          9          3 -3.13658305E-05                    1_GWF-(1,26622) -3.08583445E-06                    1_GWF-(1,14868)
        404          9          4 -3.56320287E-05                    1_GWF-(1,26623) -6.07158752E-06                    1_GWF-(1,14868)
        405          9          5 -3.13819577E-05                    1_GWF-(1,26622)  9.98631305E-06                    1_GWF-(1,14868)
        406          9          6 -2.29852327E-05                    1_GWF-(1,26588) -1.04510889E-05                    1_GWF-(1,14868)
        407          9          7 -2.57604816E-05                    1_GWF-(1,26350)  1.46179377E-05                    1_GWF-(1,14868)
        408          9          8 -3.43184255E-05                    1_GWF-(1,26421) -1.29752390E-05                    1_GWF-(1,14868)
        409          9          9 -2.29353793E-05                    1_GWF-(1,26350)  1.13945994E-05                    1_GWF-(1,14868)
        410          9         10  2.06694738E-05                    1_GWF-(1,26350)  6.82760331E-06                    1_GWF-(1,14869)
        411          9         11  2.38024988E-05                    1_GWF-(1,26486)  5.96895002E-06                    1_GWF-(1,14868)
        412          9         12  2.79783541E-05                    1_GWF-(1,26544)  6.99835282E-06                    1_GWF-(1,14867)
        413          9         13  4.64795159E-05                    1_GWF-(1,26422)  5.61262671E-06                    1_GWF-(1,14782)
        414          9         14  5.41322369E-05                    1_GWF-(1,26350)  6.18720799E-06                    1_GWF-(1,14867)
        415          9         15  4.10792245E-05                    1_GWF-(1,26422) -5.03513802E-06                    1_GWF-(1,14868)
        416          9         16 -3.60730456E-05                    1_GWF-(1,26422)  8.23427460E-06                    1_GWF-(1,14868)
        417          9         17 -4.23887093E-05                    1_GWF-(1,26588)  5.73013780E-06                    1_GWF-(1,14869)
        418          9         18 -4.14685040E-05                    1_GWF-(1,26589)  4.52068339E-06                    1_GWF-(1,14782)
        419          9         19 -4.26093135E-05                    1_GWF-(1,26588)  4.78245589E-06                    1_GWF-(1,14867)
        420          9         20 -4.25452172E-05                    1_GWF-(1,26487) -6.07791950E-06                    1_GWF-(1,14868)
        421          9         21 -4.33132931E-05                    1_GWF-(1,26486)  9.03125789E-06                    1_GWF-(1,14868)
        422          9         22  3.06786822E-05                    1_GWF-(1,26486) -8.01587575E-06                    1_GWF-(1,14868)
        423          9         23  2.70432388E-05                    1_GWF-(1,26544)  6.95544340E-06                    1_GWF-(1,14868)
        424          9         24 -3.31413568E-05                    1_GWF-(1,26622)  3.79718274E-06                    1_GWF-(1,14867)
        425          9         25 -3.59904333E-05                    1_GWF-(1,26649)  2.25168380E-06                    1_GWF-(1,14869)
        426          9         26  2.94019436E-05                    1_GWF-(1,26350)  6.26561704E-06                    1_GWF-(1,14868)
        427          9         27 -2.66102054E-05                    1_GWF-(1,26665) -5.83980684E-06                    1_GWF-(1,14868)
        428          9         28 -2.57587661E-05                    1_GWF-(1,26666)  5.95439731E-06                    1_GWF-(1,14868)
        429          9         29 -2.67203070E-05                    1_GWF-(1,26665)  4.68156651E-06                    1_GWF-(1,14867)
        430          9         30  3.67693766E-05                    1_GWF-(1,26665)  1.99382879E-06                    1_GWF-(1,14782)
        431          9         31  3.56940567E-05                    1_GWF-(1,26666)  3.01446677E-06                    1_GWF-(1,14868)
        432          9         32  3.73648086E-05                    1_GWF-(1,26665) -4.30917121E-06                    1_GWF-(1,14868)
        433          9         33  2.65487178E-05                    1_GWF-(1,26666)  5.33968576E-06                    1_GWF-(1,14868)
        434          9         34  1.72149388E-05                    1_GWF-(1,26622)  4.72028822E-06                    1_GWF-(1,14867)
        435          9         35 -2.35521463E-05                    1_GWF-(1,26665)  4.53092465E-06                    1_GWF-(1,14868)
        436          9         36 -1.82096653E-05                    1_GWF-(1,26663)  2.93723514E-06                    1_GWF-(1,14867)
        437          9         37 -1.59628988E-05                    1_GWF-(1,26623)  2.56381531E-06                    1_GWF-(1,14868)
        438          9         38 -2.26979173E-05                    1_GWF-(1,26586)  9.27938588E-07                    1_GWF-(1,14869)
        439          9         39 -3.16437911E-05                    1_GWF-(1,26623)  1.75255723E-06                    1_GWF-(1,14867)
        440          9         40 -2.92220474E-05                    1_GWF-(1,26622)  2.13620549E-06                    1_GWF-(1,14868)
        441          9         41 -2.01323002E-05                    1_GWF-(1,26487)  1.82019070E-06                    1_GWF-(1,14869)
        442          9         42 -1.97543969E-05                    1_GWF-(1,26486)  1.99463814E-06                    1_GWF-(1,14868)
        443          9         43 -1.84804286E-05                    1_GWF-(1,26217)  1.35506873E-06                    1_GWF-(1,14782)
        444          9         44  1.54605307E-05                    1_GWF-(1,26544)  2.46448683E-06                    1_GWF-(1,14867)
        445          9         45  1.28752785E-05                    1_GWF-(1,26486) -2.53988647E-06                    1_GWF-(1,14867)
        446          9         46  1.37912414E-05                    1_GWF-(1,26422)  3.63243193E-06                    1_GWF-(1,14867)
        447          9         47  1.56447624E-05                    1_GWF-(1,26218) -3.36262588E-06                    1_GWF-(1,14867)
        448          9         48  1.93586130E-05                    1_GWF-(1,26217)  4.02675302E-06                    1_GWF-(1,14867)
        449          9         49  1.71895616E-05                    1_GWF-(1,26218) -3.56257526E-06                    1_GWF-(1,14867)
        450          9         50  1.25260348E-05                    1_GWF-(1,26217)  3.95437941E-06                    1_GWF-(1,14867)
        451         10          1 -1.17167874E-05                    1_GWF-(1,26217) -3.81434466E-06                    1_GWF-(1,14867)
        452         10          2 -1.49038934E-05                    1_GWF-(1,26218)  3.83229963E-06                    1_GWF-(1,14867)
        453         10          3 -1.62771013E-05                    1_GWF-(1,26217) -2.58735735E-06                    1_GWF-(1,14867)
        454         10          4 -1.21234757E-05                    1_GWF-(1,26218)  2.21033193E-06                    1_GWF-(1,14867)
        455         10          5 -1.59586484E-05                    1_GWF-(1,26420)  8.04068512E-07                    1_GWF-(1,14782)
        456         10          6 -1.97649187E-05                    1_GWF-(1,26487)  8.29858389E-07                    1_GWF-(1,14782)
        457         10          7 -1.89794644E-05                    1_GWF-(1,26486)  2.13087701E-06                    1_GWF-(1,14867)
        458         10          8 -1.03286730E-05                    1_GWF-(1,26622) -1.98120311E-06                    1_GWF-(1,14867)
        459         10          9  1.05313837E-05                    1_GWF-(1,26217)  1.72731533E-06                    1_GWF-(1,14867)
        460         10         10  8.78500704E-06                    1_GWF-(1,26486) -7.75596164E-07                    1_GWF-(1,14867)
        461         10         11  6.46586631E-06                    1_GWF-(1,26420)  6.86195509E-07                    1_GWF-(1,14868)
        462         10         12  7.88051561E-06                    1_GWF-(1,26623)  6.56910974E-07                    1_GWF-(1,14869)
        463         10         13  8.06675605E-06                    1_GWF-(1,26588)  8.78174774E-07                    1_GWF-(1,14868)
        464         10         14  9.05157791E-06                    1_GWF-(1,26649)  8.23631660E-07                    1_GWF-(1,14867)
        465         10         15  1.07938017E-05                    1_GWF-(1,26622)  5.00394367E-07                    1_GWF-(1,14782)
        466         10         16  9.78206170E-06                    1_GWF-(1,26487)  5.56721517E-07                    1_GWF-(1,14868)
        467         10         17 -7.52047500E-06                    1_GWF-(1,26649)  6.57776028E-07                    1_GWF-(1,14869)
        468         10         18  5.25068692E-06                    1_GWF-(1,26588)  8.47468246E-07                    1_GWF-(1,14868)
        469         10         19 -7.88518384E-06                    1_GWF-(1,26588)  7.70591030E-07                    1_GWF-(1,14867)
        470         10         20 -1.12151217E-05                    1_GWF-(1,26543)  2.59779321E-07                    1_GWF-(1,14868)
        471         10         21 -1.17502039E-05                    1_GWF-(1,26588)  6.01145036E-07                    1_GWF-(1,14868)
        472         10         22 -7.09802489E-06                    1_GWF-(1,26589)  1.03108701E-06                    1_GWF-(1,14867)
        473         10         23 -4.83045943E-06                    1_GWF-(1,26588)  1.22315240E-06                    1_GWF-(1,14868)
        474         10         24  4.77606444E-06                    1_GWF-(1,26666)  1.12619164E-06                    1_GWF-(1,14867)
        475         10         25  5.70005013E-06                    1_GWF-(1,26665)  1.09909328E-06                    1_GWF-(1,14868)
        476         10         26 -5.91284233E-06                    1_GWF-(1,26665)  5.97704180E-07                    1_GWF-(1,14869)
        477         10         27 -6.47079551E-06                    1_GWF-(1,26666)  4.35444604E-07                    1_GWF-(1,14867)
        478         10         28 -6.91664223E-06                    1_GWF-(1,26665)  7.62048199E-07                    1_GWF-(1,14782)
        479         10         29  4.48332173E-06                    1_GWF-(1,26674)  1.02050508E-06                    1_GWF-(1,14867)
        480         10         30  4.84450859E-06                    1_GWF-(1,26666)  1.34662686E-06                    1_GWF-(1,14868)
        481         10         31  4.92834051E-06                    1_GWF-(1,26486) -1.28780674E-06                    1_GWF-(1,14868)
        482         10         32  5.24366512E-06                    1_GWF-(1,26350)  1.60894714E-06                    1_GWF-(1,14868)
        483         10         33  5.27446745E-06                    1_GWF-(1,26422)  1.12170048E-06                    1_GWF-(1,14869)
        484         10         34  4.41527491E-06                    1_GWF-(1,26350)  1.24999885E-06                    1_GWF-(1,14868)
        485         10         35  4.22805316E-06                    1_GWF-(1,26422) -7.36704246E-07                    1_GWF-(1,14868)
        486         10         36 -4.24804124E-06                    1_GWF-(1,26422)  6.75612807E-07                    1_GWF-(1,14867)
        487         10         37 -5.58468014E-06                    1_GWF-(1,26350)  5.72146229E-07                    1_GWF-(1,14782)
        488         10         38 -4.11634241E-06                    1_GWF-(1,26422)  6.12187437E-07                    1_GWF-(1,14867)
        489         10         39  3.78809574E-06                    1_GWF-(1,26649)  5.67709012E-07                    1_GWF-(1,14868)
        490         10         40  4.31194854E-06                    1_GWF-(1,26622)  3.64648918E-07                    1_GWF-(1,14869)
        491         10         41 -3.98536340E-06                    1_GWF-(1,26622)  5.62401728E-07                    1_GWF-(1,14867)
        492         10         42 -3.50400665E-06                    1_GWF-(1,26649)  4.41417761E-07                    1_GWF-(1,14782)
        493         10         43  2.94302580E-06                    1_GWF-(1,26350)  4.92276684E-07                    1_GWF-(1,14869)
        494         10         44  2.96566547E-06                    1_GWF-(1,26422)  8.83774531E-07                    1_GWF-(1,14868)
        495         10         45  2.79521550E-06                    1_GWF-(1,26544) -7.69379879E-07                    1_GWF-(1,14868)
        496         10         46  4.37667955E-06                    1_GWF-(1,26486)  5.63309158E-07                    1_GWF-(1,14868)
        497         10         47  3.96571025E-06                    1_GWF-(1,26487) -2.50713910E-07                    1_GWF-(1,14867)
        498         10         48 -3.39927564E-06                    1_GWF-(1,26487) -5.21263974E-07                    1_GWF-(1,14868)
        499         10         49 -3.14971984E-06                    1_GWF-(1,26420)  7.55192922E-07                    1_GWF-(1,14868)
        500         10         50  1.77095324E-06                    1_GWF-(1,26589) -8.94110231E-07                    1_GWF-(1,14868)
        501         11          1 -1.66501858E-06                    1_GWF-(1,26589)  1.59322575E-06                    1_GWF-(1,14868)
        502         11          2 -2.55574534E-06                    1_GWF-(1,26588) -8.67844749E-07                    1_GWF-(1,14868)
        503         11          3 -2.06855491E-06                    1_GWF-(1,26543)  2.95382331E-07                    1_GWF-(1,14868)
        504         11          4 -2.43406597E-06                    1_GWF-(1,26487)  3.99968595E-07                    1_GWF-(1,14868)
        505         11          5 -3.47459600E-06                    1_GWF-(1,26486) -8.72059020E-07                    1_GWF-(1,14868)
        506         11          6 -2.90040165E-06                    1_GWF-(1,26544)  1.11375806E-06                    1_GWF-(1,14868)
        507         11          7 -2.40875188E-06                    1_GWF-(1,26486) -5.39724943E-07                    1_GWF-(1,14868)
        508         11          8  2.39156554E-06                    1_GWF-(1,26486)  2.32712012E-07                    1_GWF-(1,14868)
        509         11          9  2.54976069E-06                    1_GWF-(1,26649)  3.68280455E-07                    1_GWF-(1,14867)
        510         11         10  2.49117060E-06                    1_GWF-(1,26622)  3.76897793E-07                    1_GWF-(1,14869)
        511         11         11  2.23574446E-06                    1_GWF-(1,26665)  4.85813669E-07                    1_GWF-(1,14868)
        512         11         12 -1.98332944E-06                    1_GWF-(1,26649)  3.03960412E-07                    1_GWF-(1,14867)
        513         11         13  2.28495348E-06                    1_GWF-(1,26422)  3.68331622E-07                    1_GWF-(1,14782)
        514         11         14  2.84146761E-06                    1_GWF-(1,26350)  4.47545287E-07                    1_GWF-(1,14867)
        515         11         15 -2.44508511E-06                    1_GWF-(1,26622) -2.72489479E-07                    1_GWF-(1,14868)
        516         11         16 -2.69605193E-06                    1_GWF-(1,26588)  3.37821833E-07                    1_GWF-(1,14868)
        517         11         17 -2.37671834E-06                    1_GWF-(1,26586)  5.00162719E-07                    1_GWF-(1,14867)
        518         11         18 -2.93631042E-06                    1_GWF-(1,26420)  4.61140102E-07                    1_GWF-(1,14782)
        519         11         19 -3.86158801E-06                    1_GWF-(1,26422)  4.65578842E-07                    1_GWF-(1,14867)
        520         11         20 -4.06429556E-06                    1_GWF-(1,26350) -4.85815638E-07                    1_GWF-(1,14868)
        521         11         21 -3.06638840E-06                    1_GWF-(1,26422)  6.50478323E-07                    1_GWF-(1,14868)
        522         11         22 -2.11121655E-06                    1_GWF-(1,26420) -5.91715888E-07                    1_GWF-(1,14868)
        523         11         23  1.90620851E-06                    1_GWF-(1,26665)  6.53327989E-07                    1_GWF-(1,14868)
        524         11         24  1.96715990E-06                    1_GWF-(1,26663) -4.19079718E-07                    1_GWF-(1,14868)
        525         11         25  1.72856828E-06                    1_GWF-(1,26665)  2.89791888E-07                    1_GWF-(1,14782)
        526         11         26 -2.03117686E-06                    1_GWF-(1,26665)  2.14462972E-07                    1_GWF-(1,14867)
        527         11         27 -2.22654936E-06                    1_GWF-(1,26666) -2.56469147E-07                    1_GWF-(1,14868)
        528         11         28 -2.17830264E-06                    1_GWF-(1,26665)  4.82846019E-07                    1_GWF-(1,14868)
        529         11         29 -1.53000789E-06                    1_GWF-(1,26663) -4.67953590E-07                    1_GWF-(1,14868)
        530         11         30  1.51685642E-06                    1_GWF-(1,26649)  4.82132792E-07                    1_GWF-(1,14868)
        531         11         31  1.56148972E-06                    1_GWF-(1,26622)  3.33932014E-07                    1_GWF-(1,14867)
        532         11         32  1.42319522E-06                    1_GWF-(1,26649)  2.19788869E-07                    1_GWF-(1,14868)
        533         11         33  1.86063986E-06                    1_GWF-(1,26622)  7.79069446E-08                    1_GWF-(1,14867)
        534         11         34  2.36189174E-06                    1_GWF-(1,26649)  1.65110663E-07                    1_GWF-(1,14869)
        535         11         35 -1.82624130E-06                    1_GWF-(1,26665)  2.76041279E-07                    1_GWF-(1,14868)
        536         11         36 -1.72858943E-06                    1_GWF-(1,26622)  2.53781695E-07                    1_GWF-(1,14867)
        537         11         37 -1.14724795E-06                    1_GWF-(1,26623)  2.14263314E-07                    1_GWF-(1,14868)
        538         11         38 -1.05988214E-06                    1_GWF-(1,26589)  1.38247786E-07                    1_GWF-(1,14869)
        539         11         39 -1.20161507E-06                    1_GWF-(1,26588)  9.91784159E-08                    1_GWF-(1,14868)
        540         11         40 -1.53984558E-06                    1_GWF-(1,26420)  5.92389057E-08                    1_GWF-(1,14782)
        541         11         41 -2.42853183E-06                    1_GWF-(1,26487)  1.31740865E-07                    1_GWF-(1,14867)
        542         11         42 -2.47459171E-06                    1_GWF-(1,26486)  1.21658718E-07                    1_GWF-(1,14868)
        543         11         43 -1.28727848E-06                    1_GWF-(1,26487)  7.50431912E-08                    1_GWF-(1,14869)
        544         11         44  1.18861626E-06                    1_GWF-(1,26544)  9.11427338E-08                    1_GWF-(1,14867)
        545         11         45  1.00844985E-06                    1_GWF-(1,26486)  1.13731613E-07                    1_GWF-(1,14782)
        546         11         46  8.01798868E-07                    1_GWF-(1,26422)  1.86466470E-07                    1_GWF-(1,14867)
        547         12          1  6.46792864E-07                    1_GWF-(1,26218)  1.52060438E-07                    1_GWF-(1,14782)
 --------------------------------------------------------------------------------------------------------------------------------------


 UBDSV1 SAVING     FLOW-JA-FACE ON UNIT   1020 AT TIME STEP      1, STRESS PERIOD      1
 UBDSV06 SAVING       DATA-SPDIS IN MODEL ML               PACKAGE NPF             CONNECTED TO MODEL ML               PACKAGE NPF              ON UNIT   1020 AT TIME STEP      1, STRESS PERIOD      1
 UBDSV06 SAVING              WEL IN MODEL ML               PACKAGE ML              CONNECTED TO MODEL ML               PACKAGE WEL_0            ON UNIT   1020 AT TIME STEP      1, STRESS PERIOD      1
 UBDSV06 SAVING              DRN IN MODEL ML               PACKAGE ML              CONNECTED TO MODEL ML               PACKAGE DRN_0            ON UNIT   1020 AT TIME STEP      1, STRESS PERIOD      1
 UBDSV06 SAVING              RIV IN MODEL ML               PACKAGE ML              CONNECTED TO MODEL ML               PACKAGE RIV_0            ON UNIT   1020 AT TIME STEP      1, STRESS PERIOD      1
 UBDSV06 SAVING              GHB IN MODEL ML               PACKAGE ML              CONNECTED TO MODEL ML               PACKAGE GHB_0            ON UNIT   1020 AT TIME STEP      1, STRESS PERIOD      1
 UBDSV06 SAVING              RCH IN MODEL ML               PACKAGE ML              CONNECTED TO MODEL ML               PACKAGE RCHA_0           ON UNIT   1020 AT TIME STEP      1, STRESS PERIOD      1

 HEAD WILL BE SAVED ON UNIT 1021 AT END OF TIME STEP    1, STRESS PERIOD    1


  VOLUME BUDGET FOR ENTIRE MODEL AT END OF TIME STEP    1, STRESS PERIOD   1
  ---------------------------------------------------------------------------------------------------

     CUMULATIVE VOLUME      L**3       RATES FOR THIS TIME STEP      L**3/T          PACKAGE NAME    
     ------------------                 ------------------------                     ----------------

           IN:                                      IN:
           ---                                      ---
                 WEL =           0.0000                   WEL =           0.0000     WEL_0           
                 DRN =           0.0000                   DRN =           0.0000     DRN_0           
                 RIV =           3.7617                   RIV =           0.9404     RIV_0           
                 GHB =          10.3003                   GHB =           2.5751     GHB_0           
                 RCH =           1.9385                   RCH =           0.4846     RCHA_0          

            TOTAL IN =          16.0005              TOTAL IN =           4.0001

          OUT:                                     OUT:
          ----                                     ----
                 WEL =           0.8792                   WEL =           0.2198     WEL_0           
                 DRN =           0.7476                   DRN =           0.1869     DRN_0           
                 RIV =          14.2937                   RIV =           3.5734     RIV_0           
                 GHB =       7.9977E-02                   GHB =       1.9994E-02     GHB_0           
                 RCH =           0.0000                   RCH =           0.0000     RCHA_0          

           TOTAL OUT =          16.0005             TOTAL OUT =           4.0001

            IN - OUT =      -4.6954E-06              IN - OUT =      -1.1738E-06

 PERCENT DISCREPANCY =          -0.00     PERCENT DISCREPANCY =          -0.00




         TIME SUMMARY AT END OF TIME STEP    1 IN STRESS PERIOD    1
                    SECONDS     MINUTES      HOURS       DAYS        YEARS
                    -----------------------------------------------------------
   TIME STEP LENGTH  4.0000     6.66667E-02 1.11111E-03 4.62963E-05 1.26752E-07
 STRESS PERIOD TIME  4.0000     6.66667E-02 1.11111E-03 4.62963E-05 1.26752E-07
         TOTAL TIME  4.0000     6.66667E-02 1.11111E-03 4.62963E-05 1.26752E-07


end timestep

