                                   MODFLOW 6
                U.S. GEOLOGICAL SURVEY MODULAR HYDROLOGIC MODEL
                          GROUNDWATER FLOW MODEL (GWF)
                            VERSION 6.2.2 07/30/2021

   MODFLOW 6 compiled Jul 31 2021 14:22:53 with IFORT compiler (ver. 19.10.3)

This software has been approved for release by the U.S. Geological 
Survey (USGS). Although the software has been subjected to rigorous 
review, the USGS reserves the right to update the software as needed 
pursuant to further analysis and review. No warranty, expressed or 
implied, is made by the USGS or the U.S. Government as to the 
functionality of the software and related material nor shall the 
fact of release constitute any such warranty. Furthermore, the 
software is released on condition that neither the USGS nor the U.S. 
Government shall be held liable for any damages resulting from its 
authorized or unauthorized use. Also refer to the USGS Water 
Resources Software User Rights Notice for complete use, copyright, 
and distribution information.


System command used to initiate simulation:
mf6

MODFLOW was compiled using uniform precision.

Real Variables
  KIND: 8
  TINY (smallest non-zero value):    2.225074-308
  HUGE (largest value):    1.797693+308
  PRECISION: 15
  BIT SIZE: 64

Integer Variables
  KIND: 4
  HUGE (largest value): 2147483647
  BIT SIZE: 32

Long Integer Variables
  KIND: 8
  HUGE (largest value): 9223372036854775807
  BIT SIZE: 64

Logical Variables
  KIND: 4
  BIT SIZE: 32
 

 OPENED ./ml.disv
 FILE TYPE:DISV6                  UNIT 1005   STATUS:OLD                 
 FORMAT:FORMATTED              ACCESS:SEQUENTIAL          
 ACTION:READ                


 OPENED ./ml.ic
 FILE TYPE:IC6                    UNIT 1006   STATUS:OLD                 
 FORMAT:FORMATTED              ACCESS:SEQUENTIAL          
 ACTION:READ                


 OPENED ./ml.npf
 FILE TYPE:NPF6                   UNIT 1007   STATUS:OLD                 
 FORMAT:FORMATTED              ACCESS:SEQUENTIAL          
 ACTION:READ                


 OPENED ./ml.ghb
 FILE TYPE:GHB6                   UNIT 1008   STATUS:OLD                 
 FORMAT:FORMATTED              ACCESS:SEQUENTIAL          
 ACTION:READ                


 OPENED ./ml.rcha
 FILE TYPE:RCH6                   UNIT 1009   STATUS:OLD                 
 FORMAT:FORMATTED              ACCESS:SEQUENTIAL          
 ACTION:READ                


 OPENED ./ml.obs
 FILE TYPE:OBS6                   UNIT 1010   STATUS:OLD                 
 FORMAT:FORMATTED              ACCESS:SEQUENTIAL          
 ACTION:READ                


 OPENED ./ml.oc
 FILE TYPE:OC6                    UNIT 1011   STATUS:OLD                 
 FORMAT:FORMATTED              ACCESS:SEQUENTIAL          
 ACTION:READ                


 OPENED ml.wel
 FILE TYPE:WEL6                   UNIT 1012   STATUS:OLD                 
 FORMAT:FORMATTED              ACCESS:SEQUENTIAL          
 ACTION:READ                


 OPENED ml.drn
 FILE TYPE:DRN6                   UNIT 1013   STATUS:OLD                 
 FORMAT:FORMATTED              ACCESS:SEQUENTIAL          
 ACTION:READ                


 OPENED ml.riv
 FILE TYPE:RIV6                   UNIT 1014   STATUS:OLD                 
 FORMAT:FORMATTED              ACCESS:SEQUENTIAL          
 ACTION:READ                


 DISV -- VERTEX GRID DISCRETIZATION PACKAGE, VERSION 1 : 12/23/2015 - INPUT READ FROM UNIT 1005


 # File generated by Flopy version 3.3.5 on 06/01/2022 at 18:11:46.

 PROCESSING DISCRETIZATION OPTIONS
    MODEL LENGTH UNIT IS METERS
    XORIGIN SPECIFIED AS     405575.681000000    
    YORIGIN SPECIFIED AS     6423306.54000000    
 END OF DISCRETIZATION OPTIONS

 PROCESSING DISCRETIZATION DIMENSIONS
   NLAY = 1
   NCPL = 26674
   NVERT = 27090
 END OF DISCRETIZATION DIMENSIONS

 PROCESSING GRIDDATA
 END PROCESSING GRIDDATA

 PROCESSING VERTICES
   SUCCESSFULLY READ 27090 (X,Y) COORDINATES
   MINIMUM X COORDINATE =     405575.681000000    
   MAXIMUM X COORDINATE =     413975.681000000    
   MINIMUM Y COORDINATE =     6423306.54000000    
   MAXIMUM Y COORDINATE =     6432506.54000000    
 END PROCESSING VERTICES

 PROCESSING CELL2D
   SUCCESSFULLY READ 26674 CELL2D INFORMATION ENTRIES
   MINIMUM X CELL CENTER =     405675.681000000    
   MAXIMUM X CELL CENTER =     413875.681000000    
   MINIMUM Y CELL CENTER =     6423406.54000000    
   MAXIMUM Y CELL CENTER =     6432406.54000000    
   MAXIMUM NUMBER OF CELL2D VERTICES IS 6 FOR CELL 208
 END PROCESSING VERTICES

 NPF -- NODE PROPERTY FLOW PACKAGE, VERSION 1, 3/30/2015 INPUT READ FROM UNIT 1007


 # File generated by Flopy version 3.3.5 on 06/01/2022 at 18:11:49.
 PROCESSING NPF OPTIONS
    CELL-BY-CELL FLOW INFORMATION WILL BE SAVED TO BINARY FILE WHENEVER ICBCFL IS NOT ZERO.
    SPECIFIC DISCHARGE WILL BE CALCULATED AT CELL CENTERS AND WRITTEN TO DATA-SPDIS IN BUDGET FILE WHEN REQUESTED.
 END OF NPF OPTIONS

 WEL   -- WEL PACKAGE, VERSION 8, 2/22/2014 INPUT READ FROM UNIT 1012
 # File generated by Flopy version 3.3.5 on 06/01/2022 at 18:11:49.

 PROCESSING WEL OPTIONS
    WEL BOUNDARIES HAVE NAMES IN LAST COLUMN.
    FLOWS WILL BE SAVED TO BUDGET FILE SPECIFIED IN OUTPUT CONTROL
 END OF WEL OPTIONS

 PROCESSING WEL DIMENSIONS
    MAXBOUND =       9
 END OF WEL DIMENSIONS

 DRN   -- DRN PACKAGE, VERSION 8, 2/22/2014 INPUT READ FROM UNIT 1013
 # File generated by Flopy version 3.3.5 on 06/01/2022 at 18:11:49.

 PROCESSING DRN OPTIONS
    DRN BOUNDARIES HAVE NAMES IN LAST COLUMN.
    FLOWS WILL BE SAVED TO BUDGET FILE SPECIFIED IN OUTPUT CONTROL

 OPENED ml.drn.obs
 FILE TYPE:OBS   UNIT 1016   STATUS:OLD                 
 FORMAT:FORMATTED              ACCESS:SEQUENTIAL          
 ACTION:READ                

 END OF DRN OPTIONS

 PROCESSING DRN DIMENSIONS
    MAXBOUND =     133
 END OF DRN DIMENSIONS

 RIV   -- RIV PACKAGE, VERSION 8, 2/22/2014 INPUT READ FROM UNIT 1014
 # File generated by Flopy version 3.3.5 on 06/01/2022 at 18:11:49.

 PROCESSING RIV OPTIONS
    AUXILIARY RIV VARIABLE: FID             
    RIV BOUNDARIES HAVE NAMES IN LAST COLUMN.
    FLOWS WILL BE SAVED TO BUDGET FILE SPECIFIED IN OUTPUT CONTROL
 END OF RIV OPTIONS

 PROCESSING RIV DIMENSIONS
    MAXBOUND =     794
 END OF RIV DIMENSIONS

 GHB   -- GHB PACKAGE, VERSION 8, 2/22/2014 INPUT READ FROM UNIT 1008
 # File generated by Flopy version 3.3.5 on 06/01/2022 at 18:11:49.

 PROCESSING GHB OPTIONS
    GHB BOUNDARIES HAVE NAMES IN LAST COLUMN.
    FLOWS WILL BE SAVED TO BUDGET FILE SPECIFIED IN OUTPUT CONTROL
 END OF GHB OPTIONS

 PROCESSING GHB DIMENSIONS
    MAXBOUND =     153
 END OF GHB DIMENSIONS

 RCH   -- RCH PACKAGE, VERSION 8, 2/22/2014 INPUT READ FROM UNIT 1009
 # File generated by Flopy version 3.3.5 on 06/01/2022 at 18:11:49.

 PROCESSING RCH OPTIONS
    RECHARGE INPUT WILL BE READ AS ARRAY(S).
    FLOWS WILL BE SAVED TO BUDGET FILE SPECIFIED IN OUTPUT CONTROL
 END OF RCH OPTIONS

 IC -- INITIAL CONDITIONS PACKAGE, VERSION 8, 3/28/2015 INPUT READ FROM UNIT 1006
 # File generated by Flopy version 3.3.5 on 06/01/2022 at 18:11:49.
 PROCESSING GRIDDATA

     INITIAL HEAD =   15.00000    
 END PROCESSING GRIDDATA
 PROCESSING GRIDDATA

                ICELLTYPE = 0

 OPENED ../com_ext/k.txt
 FILE TYPE:OPEN/CLOSE   UNIT 1017   STATUS:OLD                 
 FORMAT:FORMATTED              ACCESS:SEQUENTIAL          
 ACTION:READ                

 K33 not provided.  Assuming K33 = K.
 K22 not provided.  Assuming K22 = K.
 END PROCESSING GRIDDATA

The observation utility is active for "ML"
 # File generated by Flopy version 3.3.5 on 06/01/2022 at 18:11:49.

Processing observation options:

Text output number of digits of precision set to: 10
The PRINT_INPUT option has been specified.


 OBSERVATIONS READ FROM FILE "ml.obs"
 ----------------------------------------------------------------------------------------------------------------------------------------------------------------------------------------------------------------------------
 NAME                                     TYPE                                       TIME         LOCATION DATA                              OUTPUT FILENAME                                                                 
 ----------------------------------------------------------------------------------------------------------------------------------------------------------------------------------------------------------------------------
 PRG                                      CONTINUOUS  HEAD                           ALL TIMES    "1 16523"                                  sim/hds.csv                                                                     
 P8                                       CONTINUOUS  HEAD                           ALL TIMES    "1 10323"                                  sim/hds.csv                                                                     
 P24                                      CONTINUOUS  HEAD                           ALL TIMES    "1 9594"                                   sim/hds.csv                                                                     
 P25                                      CONTINUOUS  HEAD                           ALL TIMES    "1 13966"                                  sim/hds.csv                                                                     
 P32                                      CONTINUOUS  HEAD                           ALL TIMES    "1 15787"                                  sim/hds.csv                                                                     
 P33                                      CONTINUOUS  HEAD                           ALL TIMES    "1 15825"                                  sim/hds.csv                                                                     
 PF                                       CONTINUOUS  HEAD                           ALL TIMES    "1 21048"                                  sim/hds.csv                                                                     
 PH                                       CONTINUOUS  HEAD                           ALL TIMES    "1 20781"                                  sim/hds.csv                                                                     
 PZHM1                                    CONTINUOUS  HEAD                           ALL TIMES    "1 14521"                                  sim/hds.csv                                                                     
 P26                                      CONTINUOUS  HEAD                           ALL TIMES    "1 13141"                                  sim/hds.csv                                                                     
 P27                                      CONTINUOUS  HEAD                           ALL TIMES    "1 8465"                                   sim/hds.csv                                                                     
 P28                                      CONTINUOUS  HEAD                           ALL TIMES    "1 8924"                                   sim/hds.csv                                                                     
 P29                                      CONTINUOUS  HEAD                           ALL TIMES    "1 4524"                                   sim/hds.csv                                                                     
 P30                                      CONTINUOUS  HEAD                           ALL TIMES    "1 5255"                                   sim/hds.csv                                                                     
 R20                                      CONTINUOUS  HEAD                           ALL TIMES    "1 10676"                                  sim/hds.csv                                                                     
 R21                                      CONTINUOUS  HEAD                           ALL TIMES    "1 10403"                                  sim/hds.csv                                                                     
 P34                                      CONTINUOUS  HEAD                           ALL TIMES    "1 15131"                                  sim/hds.csv                                                                     
 P37                                      CONTINUOUS  HEAD                           ALL TIMES    "1 15755"                                  sim/hds.csv                                                                     
 P38                                      CONTINUOUS  HEAD                           ALL TIMES    "1 15045"                                  sim/hds.csv                                                                     
 P39                                      CONTINUOUS  HEAD                           ALL TIMES    "1 9637"                                   sim/hds.csv                                                                     
 P40                                      CONTINUOUS  HEAD                           ALL TIMES    "1 9312"                                   sim/hds.csv                                                                     
 AP1                                      CONTINUOUS  HEAD                           ALL TIMES    "1 9702"                                   sim/hds.csv                                                                     
 RCK1                                     CONTINUOUS  HEAD                           ALL TIMES    "1 15900"                                  sim/hds.csv                                                                     
 RCK2                                     CONTINUOUS  HEAD                           ALL TIMES    "1 15199"                                  sim/hds.csv                                                                     
 P23                                      CONTINUOUS  HEAD                           ALL TIMES    "1 6409"                                   sim/hds.csv                                                                     
 ----------------------------------------------------------------------------------------------------------------------------------------------------------------------------------------------------------------------------


    BINARY GRID INFORMATION WILL BE WRITTEN TO:
      UNIT NUMBER: 1019
      FILE NAME: /srv/common/ptrack/case_study/pst/ml_04/./ml.disv.grb

 OPENED /srv/common/ptrack/case_study/pst/ml_04/./ml.disv.grb
 FILE TYPE:DATA(BINARY)   UNIT 1019   STATUS:REPLACE             
 FORMAT:UNFORMATTED            ACCESS:STREAM              
 ACTION:READWRITE           

      THE LAST TIME STEP WILL BE PRINTED
      THE LAST TIME STEP WILL BE PRINTED
 # File generated by Flopy version 3.3.5 on 06/01/2022 at 18:11:49.

 PROCESSING OC OPTIONS

    BUDGET INFORMATION WILL BE WRITTEN TO:
      UNIT NUMBER: 1020
      FILE NAME: ml.cbc

 OPENED ml.cbc
 FILE TYPE:DATA(BINARY)   UNIT 1020   STATUS:REPLACE             
 FORMAT:UNFORMATTED            ACCESS:STREAM              
 ACTION:READWRITE           

    HEAD INFORMATION WILL BE WRITTEN TO:
      UNIT NUMBER: 1021
      FILE NAME: ml.hds

 OPENED ml.hds
 FILE TYPE:DATA(BINARY)   UNIT 1021   STATUS:REPLACE             
 FORMAT:UNFORMATTED            ACCESS:STREAM              
 ACTION:READWRITE           

 END OF OC OPTIONS

The observation utility is active for "DRN_0"
 # File generated by Flopy version 3.3.5 on 06/01/2022 at 18:11:49.

Processing observation options:



start timestep kper="1" kstp="1" mode="normal"


 BEGIN READING OUTPUT CONTROL FOR STRESS PERIOD 1
      THE LAST TIME STEP WILL BE SAVED
      THE LAST TIME STEP WILL BE SAVED

 END READING OUTPUT CONTROL FOR STRESS PERIOD 1

 OPENED ext/wel_spd_04_1.txt
 FILE TYPE:OPEN/CLOSE   UNIT 1023   STATUS:OLD                 
 FORMAT:FORMATTED              ACCESS:SEQUENTIAL          
 ACTION:READ                


 OPENED ext/drn_spd_04_1.txt
 FILE TYPE:OPEN/CLOSE   UNIT 1024   STATUS:OLD                 
 FORMAT:FORMATTED              ACCESS:SEQUENTIAL          
 ACTION:READ                


 OPENED ext/riv_spd_04_1.txt
 FILE TYPE:OPEN/CLOSE   UNIT 1025   STATUS:OLD                 
 FORMAT:FORMATTED              ACCESS:SEQUENTIAL          
 ACTION:READ                


 OPENED ../com_ext/ghb_spd_1.txt
 FILE TYPE:OPEN/CLOSE   UNIT 1026   STATUS:OLD                 
 FORMAT:FORMATTED              ACCESS:SEQUENTIAL          
 ACTION:READ                


 OPENED ../com_ext/rech_spd_1.txt
 FILE TYPE:OPEN/CLOSE   UNIT 1027   STATUS:OLD                 
 FORMAT:FORMATTED              ACCESS:SEQUENTIAL          
 ACTION:READ                


 SLN_1 INNER ITERATION SUMMARY
 --------------------------------------------------------------------------------------------------------------------------------------
      TOTAL      OUTER      INNER                                                            MAXIMUM                                   
  ITERATION  ITERATION  ITERATION  MAXIMUM CHANGE      MAXIMUM CHANGE MODEL-(CELLID)        RESIDUAL    MAXIMUM RESIDUAL MODEL-(CELLID)
 --------------------------------------------------------------------------------------------------------------------------------------
          1          1          1       22.593347                    1_GWF-(1,26517)      0.19327285                    1_GWF-(1,11179)
          2          1          2       37.453993                    1_GWF-(1,26516)     -0.28148513                    1_GWF-(1,11179)
          3          1          3       48.373898                    1_GWF-(1,26515)     -0.25089395                    1_GWF-(1,15975)
          4          1          4       30.825578                    1_GWF-(1,26513)      0.19032830                    1_GWF-(1,15975)
          5          1          5       24.277780                    1_GWF-(1,26647)      0.15266501                    1_GWF-(1,11202)
          6          1          6       28.472449                    1_GWF-(1,26649)     -0.16689731                    1_GWF-(1,11207)
          7          1          7       22.817620                    1_GWF-(1,26622)      0.16772178                    1_GWF-(1,10966)
          8          1          8       17.738911                    1_GWF-(1,26623)      0.14489503                    1_GWF-(1,10960)
          9          1          9       13.894292                    1_GWF-(1,26543)  7.63370168E-02                    1_GWF-(1,10960)
         10          1         10       13.520384                    1_GWF-(1,26486)  8.08752617E-02                    1_GWF-(1,10967)
         11          1         11       10.257746                    1_GWF-(1,26487)      0.11053872                    1_GWF-(1,10966)
         12          1         12       6.9265497                    1_GWF-(1,26420)  9.06317111E-02                    1_GWF-(1,10960)
         13          1         13       5.8700734                    1_GWF-(1,26422)  6.17190187E-02                    1_GWF-(1,10960)
         14          1         14       4.0317096                    1_GWF-(1,26350)  6.22150680E-02                    1_GWF-(1,10966)
         15          1         15      -2.7322093                    1_GWF-(1,26623)  8.20959470E-02                    1_GWF-(1,10966)
         16          1         16      -2.6560951                    1_GWF-(1,26622)  6.68867706E-02                    1_GWF-(1,10960)
         17          1         17      -3.2537950                    1_GWF-(1,26623)  4.21029226E-02                    1_GWF-(1,11206)
         18          1         18      -3.8923844                    1_GWF-(1,26543)  5.38961516E-02                    1_GWF-(1,10967)
         19          1         19      -5.3621290                    1_GWF-(1,26588)  6.29724417E-02                    1_GWF-(1,10966)
         20          1         20      -4.2858805                    1_GWF-(1,26543)  4.49263682E-02                    1_GWF-(1,10960)
         21          1         21      -3.8219351                    1_GWF-(1,26487) -3.44805544E-02                    1_GWF-(1,11194)
         22          1         22      -4.1445338                    1_GWF-(1,26486)  4.18662025E-02                    1_GWF-(1,10966)
         23          1         23      -3.8201208                    1_GWF-(1,26487)  3.42695400E-02                    1_GWF-(1,14799)
         24          1         24       3.9210323                    1_GWF-(1,11575)  3.39492270E-02                    1_GWF-(1,14799)
         25          1         25       3.0907612                    1_GWF-(1,11707)  3.40369399E-02                    1_GWF-(1,14799)
         26          1         26       3.4650911                    1_GWF-(1,26487) -3.22685303E-02                    1_GWF-(1,11206)
         27          1         27       3.4454672                    1_GWF-(1,26420)  3.68887651E-02                    1_GWF-(1,11206)
         28          1         28       2.5564621                    1_GWF-(1,11618)  4.22652204E-02                    1_GWF-(1,14799)
         29          1         29       2.3169750                    1_GWF-(1,11706)  3.68703316E-02                    1_GWF-(1,14798)
         30          1         30      -2.2020365                    1_GWF-(1,11618)  3.29264486E-02                    1_GWF-(1,14799)
         31          1         31      -2.5268911                    1_GWF-(1,11707) -3.33308483E-02                    1_GWF-(1,11206)
         32          1         32       2.7096441                    1_GWF-(1,26422)  4.31130588E-02                    1_GWF-(1,14799)
         33          1         33      -2.6002524                    1_GWF-(1,26422)  3.76327506E-02                    1_GWF-(1,14799)
         34          1         34      -2.6484097                    1_GWF-(1,26350)  3.71488735E-02                    1_GWF-(1,14799)
         35          1         35      -2.5316513                    1_GWF-(1,26422)  3.15851378E-02                    1_GWF-(1,14799)
         36          1         36      -1.8991156                    1_GWF-(1,26544)  3.50730434E-02                    1_GWF-(1,14799)
         37          1         37      -1.4979501                    1_GWF-(1,26486)  3.54269075E-02                    1_GWF-(1,14799)
         38          1         38      -1.7441103                    1_GWF-(1,11621)  2.58275525E-02                    1_GWF-(1,14801)
         39          1         39      -1.2744753                    1_GWF-(1,26649)  3.54941254E-02                    1_GWF-(1,14799)
         40          1         40       1.8679953                    1_GWF-(1,11621) -3.24104870E-02                    1_GWF-(1,11206)
         41          1         41       1.1082339                    1_GWF-(1,11569)  3.33959417E-02                    1_GWF-(1,14799)
         42          1         42      -1.6730075                    1_GWF-(1,11622) -3.85430977E-02                    1_GWF-(1,11206)
         43          1         43       1.2887892                    1_GWF-(1,26350)  4.36700257E-02                    1_GWF-(1,14799)
         44          1         44       1.2533249                    1_GWF-(1,26217) -4.05106180E-02                    1_GWF-(1,11206)
         45          1         45      -1.6486589                    1_GWF-(1,11622)  4.04111705E-02                    1_GWF-(1,14799)
         46          1         46     -0.82269595                    1_GWF-(1,16081)  4.97871641E-02                    1_GWF-(1,14801)
         47          1         47      -1.1607725                    1_GWF-(1,26217)  7.62890361E-02                    1_GWF-(1,14799)
         48          1         48      -1.3260071                    1_GWF-(1,26218) -6.34194894E-02                    1_GWF-(1,14799)
         49          1         49      -1.5403634                    1_GWF-(1,26217)      0.10361220                    1_GWF-(1,14799)
         50          1         50      -1.6613611                    1_GWF-(1,26218)      0.12433519                    1_GWF-(1,14801)
         51          2          1      -166.67068                    1_GWF-(1,26519)     -0.24043392                    1_GWF-(1,26458)
         52          2          2      -63.413111                    1_GWF-(1,26513)  5.79634215E-02                    1_GWF-(1,26458)
         53          2          3      -38.452603                    1_GWF-(1,26637)  7.31311190E-02                    1_GWF-(1,14799)
         54          2          4      -35.244691                    1_GWF-(1,26665)  5.95818505E-02                    1_GWF-(1,14801)
         55          2          5      -23.288895                    1_GWF-(1,26622)  9.02741867E-02                    1_GWF-(1,14799)
         56          2          6      -19.382506                    1_GWF-(1,26588)  8.20584709E-02                    1_GWF-(1,14801)
         57          2          7      -18.537877                    1_GWF-(1,26543)      0.13229081                    1_GWF-(1,14799)
         58          2          8      -13.343893                    1_GWF-(1,26486)     -0.12973336                    1_GWF-(1,14799)
         59          2          9      -9.7982610                    1_GWF-(1,26487)      0.12934988                    1_GWF-(1,14799)
         60          2         10      -7.2876076                    1_GWF-(1,26421)  5.55494084E-02                    1_GWF-(1,14801)
         61          2         11      -7.1950242                    1_GWF-(1,26350)  2.59386788E-02                    1_GWF-(1,14801)
         62          2         12      -4.3375812                    1_GWF-(1,26217)  5.70160895E-02                    1_GWF-(1,14799)
         63          2         13      -2.5171288                    1_GWF-(1,26622)  6.13717488E-02                    1_GWF-(1,14801)
         64          2         14      -1.8109869                    1_GWF-(1,26623)  5.11282856E-02                    1_GWF-(1,14799)
         65          2         15      -1.7354363                    1_GWF-(1,26622)  2.07341321E-02                    1_GWF-(1,14801)
         66          2         16      -1.6102671                    1_GWF-(1,25728)  5.26790729E-02                    1_GWF-(1,14801)
         67          2         17       2.1096232                    1_GWF-(1,26350)      0.10688552                    1_GWF-(1,14799)
         68          2         18       1.9053700                    1_GWF-(1,26422)  9.05686510E-02                    1_GWF-(1,14801)
         69          2         19       2.0167419                    1_GWF-(1,26588)  8.31096908E-02                    1_GWF-(1,14799)
         70          2         20       1.8488658                    1_GWF-(1,26543)  1.48588371E-02                    1_GWF-(1,14801)
         71          2         21       1.9889459                    1_GWF-(1,26588)  8.16192188E-02                    1_GWF-(1,14801)
         72          2         22       2.3279793                    1_GWF-(1,26543)      0.14594000                    1_GWF-(1,14799)
         73          2         23       1.8151955                    1_GWF-(1,26544)      0.15841419                    1_GWF-(1,14801)
         74          2         24      -2.7459478                    1_GWF-(1,26487)      0.12645620                    1_GWF-(1,14799)
         75          2         25      -3.3128783                    1_GWF-(1,26486)  2.25511248E-02                    1_GWF-(1,14799)
         76          2         26      -3.5325590                    1_GWF-(1,26487)      0.14411215                    1_GWF-(1,14801)
         77          2         27      -2.4698901                    1_GWF-(1,26420)      0.26389300                    1_GWF-(1,14799)
         78          2         28       1.7359138                    1_GWF-(1,26217)      0.21969411                    1_GWF-(1,14801)
         79          2         29      -1.5155971                    1_GWF-(1,26327)      0.23426769                    1_GWF-(1,14799)
         80          2         30       1.5131298                    1_GWF-(1,26420)      0.18949123                    1_GWF-(1,14801)
         81          2         31      -1.1459834                    1_GWF-(1,26674)      0.18081891                    1_GWF-(1,14799)
         82          2         32      -1.0800705                    1_GWF-(1,26422)      0.14753702                    1_GWF-(1,14801)
         83          2         33      -1.1131625                    1_GWF-(1,26350)      0.11898862                    1_GWF-(1,14800)
         84          2         34      0.93176865                    1_GWF-(1,26350)      0.10542652                    1_GWF-(1,14801)
         85          2         35       1.3236328                    1_GWF-(1,26422)  7.48704533E-02                    1_GWF-(1,14800)
         86          2         36      0.88990034                    1_GWF-(1,26218)  5.29074105E-02                    1_GWF-(1,14801)
         87          2         37     -0.71568696                    1_GWF-(1,26350)  3.04984303E-02                    1_GWF-(1,14800)
         88          2         38      0.71145550                    1_GWF-(1,26350)  5.30345690E-02                    1_GWF-(1,14799)
         89          2         39      0.88323634                    1_GWF-(1,26422)  6.45438284E-02                    1_GWF-(1,14798)
         90          2         40     -0.91161665                    1_GWF-(1,26486)      0.13061487                    1_GWF-(1,14799)
         91          2         41     -0.97047719                    1_GWF-(1,26420)     -0.13533807                    1_GWF-(1,14799)
         92          2         42     -0.85480940                    1_GWF-(1,26421)      0.18302320                    1_GWF-(1,14799)
         93          2         43      0.94721177                    1_GWF-(1,26421)      0.15298395                    1_GWF-(1,14801)
         94          2         44     -0.73246097                    1_GWF-(1,26218)      0.15789311                    1_GWF-(1,14799)
         95          2         45      -1.0249267                    1_GWF-(1,26420)      0.12455319                    1_GWF-(1,14801)
         96          2         46      0.69850476                    1_GWF-(1,26217)  9.20346967E-02                    1_GWF-(1,14800)
         97          2         47     -0.70506315                    1_GWF-(1,26663)  9.01515863E-02                    1_GWF-(1,14801)
         98          2         48     -0.59259657                    1_GWF-(1,26218)  6.89823487E-02                    1_GWF-(1,14800)
         99          2         49     -0.64759179                    1_GWF-(1,22783)  7.61157905E-02                    1_GWF-(1,14801)
        100          2         50     -0.52279609                    1_GWF-(1,26604)  7.01406707E-02                    1_GWF-(1,14800)
        101          3          1     -0.29251491                    1_GWF-(1,22768)  3.71306037E-02                    1_GWF-(1,14801)
        102          3          2      0.52552446                    1_GWF-(1,22783)  9.04181302E-02                    1_GWF-(1,14800)
        103          3          3      0.50177530                    1_GWF-(1,26623)      0.11521614                    1_GWF-(1,14801)
        104          3          4      0.52445651                    1_GWF-(1,26649)  7.48370208E-02                    1_GWF-(1,14800)
        105          3          5      0.47875941                    1_GWF-(1,26421)      0.11790219                    1_GWF-(1,14801)
        106          3          6      0.40625909                    1_GWF-(1,26194)     -0.13854674                    1_GWF-(1,14801)
        107          3          7     -0.49002444                    1_GWF-(1,26350)      0.12852035                    1_GWF-(1,14801)
        108          3          8     -0.62340088                    1_GWF-(1,26421)      0.10849108                    1_GWF-(1,14800)
        109          3          9      0.57985485                    1_GWF-(1,26422)      0.13311129                    1_GWF-(1,14801)
        110          3         10      0.61073462                    1_GWF-(1,26350)  8.78861893E-02                    1_GWF-(1,14800)
        111          3         11      0.47292857                    1_GWF-(1,26486)  6.24606101E-02                    1_GWF-(1,14801)
        112          3         12     -0.60079033                    1_GWF-(1,26422)  3.58755084E-02                    1_GWF-(1,14800)
        113          3         13      0.40303907                    1_GWF-(1,26422)  3.08593119E-02                    1_GWF-(1,10966)
        114          3         14      0.41521612                    1_GWF-(1,26350)  3.99337823E-02                    1_GWF-(1,14799)
        115          3         15     -0.51747204                    1_GWF-(1,26350)  3.79697685E-02                    1_GWF-(1,10966)
        116          3         16     -0.53891387                    1_GWF-(1,26422)  6.50484656E-02                    1_GWF-(1,14799)
        117          3         17      0.44418519                    1_GWF-(1,26422)  4.95430514E-02                    1_GWF-(1,14800)
        118          3         18      0.46710017                    1_GWF-(1,26350)  6.79862977E-02                    1_GWF-(1,14801)
        119          3         19      0.42997165                    1_GWF-(1,26421)  7.75425424E-02                    1_GWF-(1,14800)
        120          3         20      0.44895990                    1_GWF-(1,26659)  8.45686454E-02                    1_GWF-(1,14801)
        121          3         21     -0.48192072                    1_GWF-(1,26420)  7.62022096E-02                    1_GWF-(1,14800)
        122          3         22     -0.43053000                    1_GWF-(1,11438)  9.42496220E-02                    1_GWF-(1,14801)
        123          3         23     -0.51843478                    1_GWF-(1,26217)  8.21184767E-02                    1_GWF-(1,14800)
        124          3         24     -0.43554026                    1_GWF-(1,26421)  6.70567938E-02                    1_GWF-(1,14801)
        125          3         25      0.70306798                    1_GWF-(1,26487) -4.23785160E-02                    1_GWF-(1,10966)
        126          3         26      0.86754041                    1_GWF-(1,26420)  2.16565432E-02                    1_GWF-(1,14798)
        127          3         27      0.77603215                    1_GWF-(1,26487)  3.32438103E-02                    1_GWF-(1,14801)
        128          3         28     -0.55264402                    1_GWF-(1,26487)  4.36669932E-02                    1_GWF-(1,14800)
        129          3         29     -0.62657024                    1_GWF-(1,26486)  4.87278254E-02                    1_GWF-(1,14801)
        130          3         30     -0.58933145                    1_GWF-(1,26544)  3.64383219E-02                    1_GWF-(1,14799)
        131          3         31     -0.54083454                    1_GWF-(1,26486) -2.74756789E-02                    1_GWF-(1,14799)
        132          3         32      0.62391415                    1_GWF-(1,26543)  2.13240519E-02                    1_GWF-(1,14801)
        133          3         33     -0.60288026                    1_GWF-(1,26543)  3.69063544E-02                    1_GWF-(1,14800)
        134          3         34     -0.58361309                    1_GWF-(1,26588)  4.30351881E-02                    1_GWF-(1,10966)
        135          3         35      0.54111052                    1_GWF-(1,26588)  4.91638412E-02                    1_GWF-(1,14799)
        136          3         36      0.44115339                    1_GWF-(1,26665) -3.65455315E-02                    1_GWF-(1,14799)
        137          3         37      0.46924953                    1_GWF-(1,26623)  2.59048738E-02                    1_GWF-(1,14799)
        138          3         38      0.62118194                    1_GWF-(1,26622) -1.80974194E-02                    1_GWF-(1,10966)
        139          3         39      0.48024020                    1_GWF-(1,26649) -3.36837775E-02                    1_GWF-(1,14799)
        140          3         40     -0.46533857                    1_GWF-(1,26649)  4.86807755E-02                    1_GWF-(1,14799)
        141          3         41     -0.45190916                    1_GWF-(1,26622) -3.56734986E-02                    1_GWF-(1,14799)
        142          3         42     -0.59178711                    1_GWF-(1,26665)  1.19560406E-02                    1_GWF-(1,10966)
        143          3         43     -0.56291452                    1_GWF-(1,26666) -2.75420130E-02                    1_GWF-(1,10966)
        144          3         44     -0.43828357                    1_GWF-(1,26665) -3.93988739E-02                    1_GWF-(1,14799)
        145          3         45      0.56887249                    1_GWF-(1,26665)  6.20013979E-02                    1_GWF-(1,14799)
        146          3         46      0.48177365                    1_GWF-(1,26666) -6.08230484E-02                    1_GWF-(1,14799)
        147          3         47     -0.32218353                    1_GWF-(1,25816)  7.63854612E-02                    1_GWF-(1,14799)
        148          3         48     -0.29884794                    1_GWF-(1,26154) -6.35178584E-02                    1_GWF-(1,14799)
        149          3         49     -0.33492465                    1_GWF-(1,26649)  9.13317989E-02                    1_GWF-(1,14799)
        150          3         50     -0.38318150                    1_GWF-(1,26637) -7.07197191E-02                    1_GWF-(1,14799)
        151          4          1     -0.29971812                    1_GWF-(1,16214)  2.94290332E-02                    1_GWF-(1,14799)
        152          4          2      0.21144965                    1_GWF-(1,26623)     -0.10113352                    1_GWF-(1,14799)
        153          4          3     -0.20577588                    1_GWF-(1,26218)      0.10019470                    1_GWF-(1,14799)
        154          4          4      0.26978861                    1_GWF-(1,25802) -5.22480178E-02                    1_GWF-(1,14799)
        155          4          5      0.23435438                    1_GWF-(1,25817)  6.18834130E-02                    1_GWF-(1,14799)
        156          4          6     -0.25156575                    1_GWF-(1,26665) -5.57369191E-02                    1_GWF-(1,14799)
        157          4          7     -0.25355457                    1_GWF-(1,26666)  3.45387458E-02                    1_GWF-(1,14799)
        158          4          8     -0.32453679                    1_GWF-(1,26665)  1.06733610E-02                    1_GWF-(1,14801)
        159          4          9      0.38204466                    1_GWF-(1,26665) -1.50601979E-02                    1_GWF-(1,14799)
        160          4         10      0.32552284                    1_GWF-(1,26666)  3.11086804E-02                    1_GWF-(1,14799)
        161          4         11      0.26902421                    1_GWF-(1,26649) -3.24498854E-02                    1_GWF-(1,14799)
        162          4         12     -0.27753302                    1_GWF-(1,26649)  2.38410476E-02                    1_GWF-(1,14799)
        163          4         13      0.26406080                    1_GWF-(1,26649)  7.17237120E-03                    1_GWF-(1,14801)
        164          4         14      0.31424990                    1_GWF-(1,26622) -2.17790354E-02                    1_GWF-(1,14799)
        165          4         15      0.25574844                    1_GWF-(1,26623)  3.23920508E-02                    1_GWF-(1,14799)
        166          4         16     -0.26526535                    1_GWF-(1,26623) -2.27659228E-02                    1_GWF-(1,14799)
        167          4         17      0.20385429                    1_GWF-(1,26588)  1.92643249E-02                    1_GWF-(1,14799)
        168          4         18     -0.26450598                    1_GWF-(1,26588)  1.41914708E-02                    1_GWF-(1,14801)
        169          4         19     -0.36788736                    1_GWF-(1,26543) -8.83537814E-03                    1_GWF-(1,14799)
        170          4         20     -0.35802348                    1_GWF-(1,26588)  2.05836791E-02                    1_GWF-(1,14799)
        171          4         21     -0.25212955                    1_GWF-(1,26543) -1.54430028E-02                    1_GWF-(1,14799)
        172          4         22      0.19769969                    1_GWF-(1,26486)  1.46144638E-02                    1_GWF-(1,14800)
        173          4         23      0.21203746                    1_GWF-(1,26487)  1.63204005E-02                    1_GWF-(1,14801)
        174          4         24      0.25796400                    1_GWF-(1,26486)  7.29306864E-03                    1_GWF-(1,14800)
        175          4         25      0.27786401                    1_GWF-(1,26487)  1.51267018E-02                    1_GWF-(1,14799)
        176          4         26      0.25629216                    1_GWF-(1,26420)  1.66910315E-02                    1_GWF-(1,14801)
        177          4         27      0.19254487                    1_GWF-(1,26487)  1.93445142E-02                    1_GWF-(1,14800)
        178          4         28      0.19459981                    1_GWF-(1,26217)  2.49334077E-02                    1_GWF-(1,14801)
        179          4         29      0.18280296                    1_GWF-(1,26218)  2.19931734E-02                    1_GWF-(1,14800)
        180          4         30      0.13456193                    1_GWF-(1,26420)  2.39969029E-02                    1_GWF-(1,14801)
        181          4         31      0.17700966                    1_GWF-(1,26486)  1.96546647E-02                    1_GWF-(1,14800)
        182          4         32      0.14881217                    1_GWF-(1,11438)  2.42858092E-02                    1_GWF-(1,14801)
        183          4         33     -0.16432985                    1_GWF-(1,26544)  1.76316238E-02                    1_GWF-(1,14800)
        184          4         34     -0.16362255                    1_GWF-(1,26486)  1.64945097E-02                    1_GWF-(1,14799)
        185          4         35     -0.17791406                    1_GWF-(1,26350) -9.89783624E-03                    1_GWF-(1,14799)
        186          4         36     -0.19515544                    1_GWF-(1,26422)  1.24565630E-02                    1_GWF-(1,14799)
        187          4         37     -0.15120391                    1_GWF-(1,26350)  6.52465932E-03                    1_GWF-(1,14798)
        188          4         38     -0.12203777                    1_GWF-(1,26422)  7.76258662E-03                    1_GWF-(1,14799)
        189          4         39     -0.11012509                    1_GWF-(1,26350)  8.47238322E-03                    1_GWF-(1,14801)
        190          4         40     -0.10909582                    1_GWF-(1,26422)  1.12882361E-02                    1_GWF-(1,14800)
        191          4         41 -8.98060844E-02                    1_GWF-(1,26350)  1.62779122E-02                    1_GWF-(1,14801)
        192          4         42 -9.74597902E-02                    1_GWF-(1,11438)  1.74650510E-02                    1_GWF-(1,14800)
        193          4         43      0.12707600                    1_GWF-(1,26421)  1.97965794E-02                    1_GWF-(1,14801)
        194          4         44      0.14169410                    1_GWF-(1,26350)  1.87123101E-02                    1_GWF-(1,14800)
        195          4         45      0.11622954                    1_GWF-(1,26218)  2.20143993E-02                    1_GWF-(1,14801)
        196          4         46  9.55757988E-02                    1_GWF-(1,26420)  1.85078290E-02                    1_GWF-(1,14800)
        197          4         47 -9.15690693E-02                    1_GWF-(1,11453)  1.82818424E-02                    1_GWF-(1,14801)
        198          4         48  6.58815581E-02                    1_GWF-(1,26589)  1.33619089E-02                    1_GWF-(1,14800)
        199          4         49 -6.72392466E-02                    1_GWF-(1,26420)  1.44683545E-02                    1_GWF-(1,14801)
        200          4         50 -8.92067986E-02                    1_GWF-(1,26218)  1.11101557E-02                    1_GWF-(1,14800)
        201          5          1 -8.32505767E-02                    1_GWF-(1,11455)  4.73741881E-03                    1_GWF-(1,14801)
        202          5          2 -5.88845730E-02                    1_GWF-(1,26537)  1.49846712E-02                    1_GWF-(1,14800)
        203          5          3  5.59993736E-02                    1_GWF-(1,26218)  1.81914915E-02                    1_GWF-(1,14801)
        204          5          4 -8.52066849E-02                    1_GWF-(1,26486)  1.11264366E-02                    1_GWF-(1,14800)
        205          5          5 -7.17194747E-02                    1_GWF-(1,26544)  1.63213430E-02                    1_GWF-(1,14801)
        206          5          6 -7.49017065E-02                    1_GWF-(1,26421) -1.81817936E-02                    1_GWF-(1,14801)
        207          5          7     -0.10989893                    1_GWF-(1,26350)  1.53030170E-02                    1_GWF-(1,14801)
        208          5          8 -9.44505240E-02                    1_GWF-(1,26421)  1.27810168E-02                    1_GWF-(1,14800)
        209          5          9  6.83446469E-02                    1_GWF-(1,11438)  1.53068824E-02                    1_GWF-(1,14801)
        210          5         10  7.19997142E-02                    1_GWF-(1,26350)  1.00439869E-02                    1_GWF-(1,14800)
        211          5         11  8.02286865E-02                    1_GWF-(1,26422)  6.90656023E-03                    1_GWF-(1,14801)
        212          5         12  9.72025530E-02                    1_GWF-(1,26350)  5.25135822E-03                    1_GWF-(1,14799)
        213          5         13      0.11541285                    1_GWF-(1,26422)  5.68394282E-03                    1_GWF-(1,10966)
        214          5         14      0.10542337                    1_GWF-(1,26350)  6.80176593E-03                    1_GWF-(1,14799)
        215          5         15  9.53565382E-02                    1_GWF-(1,26422)  6.11180546E-03                    1_GWF-(1,10966)
        216          5         16  8.19329204E-02                    1_GWF-(1,26350)  9.26709433E-03                    1_GWF-(1,14799)
        217          5         17  8.15736633E-02                    1_GWF-(1,26486)  7.31967905E-03                    1_GWF-(1,14800)
        218          5         18  7.25290020E-02                    1_GWF-(1,26544)  9.79681236E-03                    1_GWF-(1,14801)
        219          5         19 -8.13797041E-02                    1_GWF-(1,11438)  1.02559489E-02                    1_GWF-(1,14800)
        220          5         20     -0.11014427                    1_GWF-(1,26486)  1.11616994E-02                    1_GWF-(1,14801)
        221          5         21 -6.93146024E-02                    1_GWF-(1,26487)  8.55962661E-03                    1_GWF-(1,14800)
        222          5         22 -8.90701580E-02                    1_GWF-(1,11438)  7.93400457E-03                    1_GWF-(1,14801)
        223          5         23     -0.14098952                    1_GWF-(1,26588)  4.40304786E-03                    1_GWF-(1,14799)
        224          5         24     -0.10823685                    1_GWF-(1,26622)  6.19258902E-03                    1_GWF-(1,14800)
        225          5         25 -7.69605094E-02                    1_GWF-(1,11438)  1.06005613E-02                    1_GWF-(1,14801)
        226          5         26  7.43776254E-02                    1_GWF-(1,26218) -8.35666655E-03                    1_GWF-(1,14801)
        227          5         27  7.87486845E-02                    1_GWF-(1,11438)  8.74235832E-03                    1_GWF-(1,14801)
        228          5         28 -7.95295578E-02                    1_GWF-(1,11438)  6.34460912E-03                    1_GWF-(1,14800)
        229          5         29  7.05734582E-02                    1_GWF-(1,26622)  5.08679604E-03                    1_GWF-(1,14801)
        230          5         30  6.97010765E-02                    1_GWF-(1,26543)  4.76435766E-03                    1_GWF-(1,14799)
        231          5         31      0.10774344                    1_GWF-(1,26588)  2.63546540E-03                    1_GWF-(1,14800)
        232          5         32  9.01776372E-02                    1_GWF-(1,26543)  4.94583595E-03                    1_GWF-(1,14801)
        233          5         33  6.38904879E-02                    1_GWF-(1,11438) -5.31945495E-03                    1_GWF-(1,10966)
        234          5         34 -6.30629875E-02                    1_GWF-(1,11438) -5.92019755E-03                    1_GWF-(1,14799)
        235          5         35 -5.07801324E-02                    1_GWF-(1,26665)  7.70775368E-03                    1_GWF-(1,14799)
        236          5         36  7.87529836E-02                    1_GWF-(1,26665) -5.65573344E-03                    1_GWF-(1,14799)
        237          5         37  8.61327390E-02                    1_GWF-(1,26666)  4.32846804E-03                    1_GWF-(1,14799)
        238          5         38  8.69050492E-02                    1_GWF-(1,26665) -2.82314047E-03                    1_GWF-(1,10966)
        239          5         39 -6.24018814E-02                    1_GWF-(1,26665)  4.08776119E-03                    1_GWF-(1,14801)
        240          5         40 -6.14852835E-02                    1_GWF-(1,26666)  7.83473673E-03                    1_GWF-(1,14799)
        241          5         41 -6.28384120E-02                    1_GWF-(1,26486) -6.26129457E-03                    1_GWF-(1,14799)
        242          5         42 -6.77310001E-02                    1_GWF-(1,26487)  4.90709464E-03                    1_GWF-(1,14799)
        243          5         43  5.91224995E-02                    1_GWF-(1,26622) -2.15698829E-03                    1_GWF-(1,10966)
        244          5         44  5.21274843E-02                    1_GWF-(1,26649) -3.96653212E-03                    1_GWF-(1,14799)
        245          5         45 -5.52132299E-02                    1_GWF-(1,11416)  8.20316105E-03                    1_GWF-(1,14799)
        246          5         46 -4.18783045E-02                    1_GWF-(1,25815) -8.76816616E-03                    1_GWF-(1,14799)
        247          5         47  4.29119649E-02                    1_GWF-(1,11453)  1.06372331E-02                    1_GWF-(1,14799)
        248          5         48  4.40917827E-02                    1_GWF-(1,26218) -1.00329477E-02                    1_GWF-(1,14799)
        249          5         49 -3.90576462E-02                    1_GWF-(1,11452)  1.15351081E-02                    1_GWF-(1,14799)
        250          5         50  4.94855763E-02                    1_GWF-(1,11453) -1.11081139E-02                    1_GWF-(1,14799)
        251          6          1  8.35683344E-02                    1_GWF-(1,11456)  1.11030885E-02                    1_GWF-(1,14799)
        252          6          2  5.15340902E-02                    1_GWF-(1,11438) -1.01921022E-02                    1_GWF-(1,14799)
        253          6          3 -6.69212620E-02                    1_GWF-(1,11456)  1.04730563E-02                    1_GWF-(1,14799)
        254          6          4  5.77350711E-02                    1_GWF-(1,11456) -8.46524487E-03                    1_GWF-(1,14799)
        255          6          5  5.77262021E-02                    1_GWF-(1,11438)  8.05532289E-03                    1_GWF-(1,14799)
        256          6          6 -3.99983844E-02                    1_GWF-(1,11438) -4.54760906E-03                    1_GWF-(1,14799)
        257          6          7  4.67865373E-02                    1_GWF-(1,11456)  1.71277241E-03                    1_GWF-(1,14799)
        258          6          8 -4.81163515E-02                    1_GWF-(1,26622)  3.26547301E-03                    1_GWF-(1,14799)
        259          6          9  5.81118179E-02                    1_GWF-(1,26487) -5.14349589E-03                    1_GWF-(1,14799)
        260          6         10  5.20633392E-02                    1_GWF-(1,11456)  6.51448724E-03                    1_GWF-(1,14799)
        261          6         11  3.65961676E-02                    1_GWF-(1,26666) -4.07923939E-03                    1_GWF-(1,14799)
        262          6         12 -5.22645539E-02                    1_GWF-(1,11456)  1.76003509E-03                    1_GWF-(1,14800)
        263          6         13  5.93671181E-02                    1_GWF-(1,11456)  2.24715712E-03                    1_GWF-(1,14799)
        264          6         14 -4.47009720E-02                    1_GWF-(1,26666) -3.63430331E-03                    1_GWF-(1,14799)
        265          6         15 -5.77765359E-02                    1_GWF-(1,11456)  4.98989547E-03                    1_GWF-(1,14799)
        266          6         16  5.48476820E-02                    1_GWF-(1,11456) -3.92183185E-03                    1_GWF-(1,14799)
        267          6         17 -4.10854986E-02                    1_GWF-(1,11458)  2.96637903E-03                    1_GWF-(1,14799)
        268          6         18 -4.72202625E-02                    1_GWF-(1,11456)  2.18285311E-03                    1_GWF-(1,14801)
        269          6         19  4.72243257E-02                    1_GWF-(1,11456)  1.30628307E-03                    1_GWF-(1,14800)
        270          6         20 -5.14504033E-02                    1_GWF-(1,26588)  2.21540094E-03                    1_GWF-(1,14799)
        271          6         21 -5.05860526E-02                    1_GWF-(1,11456) -2.35718054E-03                    1_GWF-(1,14799)
        272          6         22  4.66728349E-02                    1_GWF-(1,11456)  2.54363370E-03                    1_GWF-(1,14799)
        273          6         23 -3.22028003E-02                    1_GWF-(1,11458)  3.07952870E-03                    1_GWF-(1,14801)
        274          6         24 -4.89139989E-02                    1_GWF-(1,11456)  2.99775918E-03                    1_GWF-(1,14800)
        275          6         25  5.66321669E-02                    1_GWF-(1,11456)  3.61627541E-03                    1_GWF-(1,14801)
        276          6         26  2.66311776E-02                    1_GWF-(1,26623)  2.27044871E-03                    1_GWF-(1,14800)
        277          6         27 -4.17894457E-02                    1_GWF-(1,11456)  1.45465435E-03                    1_GWF-(1,14799)
        278          6         28  4.28744746E-02                    1_GWF-(1,11456)  1.88453680E-03                    1_GWF-(1,14801)
        279          6         29  2.55104208E-02                    1_GWF-(1,26218) -2.39876705E-03                    1_GWF-(1,14801)
        280          6         30 -5.53019678E-02                    1_GWF-(1,11456)  3.13384985E-03                    1_GWF-(1,14801)
        281          6         31  4.78781067E-02                    1_GWF-(1,11456)  2.84327773E-03                    1_GWF-(1,14800)
        282          6         32  1.89918905E-02                    1_GWF-(1,26544)  3.02868376E-03                    1_GWF-(1,14801)
        283          6         33 -4.00884216E-02                    1_GWF-(1,11456)  2.23903478E-03                    1_GWF-(1,14800)
        284          6         34  4.64243260E-02                    1_GWF-(1,11456)  2.37785957E-03                    1_GWF-(1,14799)
        285          6         35 -2.47047147E-02                    1_GWF-(1,26350)  1.51088362E-03                    1_GWF-(1,14798)
        286          6         36 -2.85125599E-02                    1_GWF-(1,26422)  1.88496069E-03                    1_GWF-(1,14799)
        287          6         37  4.11774622E-02                    1_GWF-(1,11456)  1.04694223E-03                    1_GWF-(1,14798)
        288          6         38 -2.74155633E-02                    1_GWF-(1,26422)  1.20365505E-03                    1_GWF-(1,14799)
        289          6         39 -2.20448001E-02                    1_GWF-(1,26350)  1.38260470E-03                    1_GWF-(1,14801)
        290          6         40  3.79155486E-02                    1_GWF-(1,11456)  1.82696608E-03                    1_GWF-(1,14800)
        291          6         41 -3.49067103E-02                    1_GWF-(1,11456)  2.66561344E-03                    1_GWF-(1,14801)
        292          6         42  1.16081767E-02                    1_GWF-(1,26350)  2.49729711E-03                    1_GWF-(1,14800)
        293          6         43  2.92875605E-02                    1_GWF-(1,11456)  2.81144858E-03                    1_GWF-(1,14801)
        294          6         44 -3.87671655E-02                    1_GWF-(1,11456)  2.65422862E-03                    1_GWF-(1,14800)
        295          6         45  1.68687443E-02                    1_GWF-(1,11456)  2.91675032E-03                    1_GWF-(1,14801)
        296          6         46  1.91594658E-02                    1_GWF-(1,11460)  2.28648328E-03                    1_GWF-(1,14800)
        297          6         47 -4.06378235E-02                    1_GWF-(1,11456)  2.54474009E-03                    1_GWF-(1,14801)
        298          6         48  3.00514762E-02                    1_GWF-(1,11456)  1.95255182E-03                    1_GWF-(1,14800)
        299          6         49  9.59643016E-03                    1_GWF-(1,26537)  1.88451305E-03                    1_GWF-(1,14801)
        300          6         50 -3.97823170E-02                    1_GWF-(1,11456)  1.69461226E-03                    1_GWF-(1,14800)
        301          7          1 -7.27241078E-02                    1_GWF-(1,11437)  6.51896507E-04                    1_GWF-(1,14801)
        302          7          2 -4.26807279E-02                    1_GWF-(1,11438)  2.04298206E-03                    1_GWF-(1,14800)
        303          7          3  3.33239203E-02                    1_GWF-(1,11438)  2.64736798E-03                    1_GWF-(1,14801)
        304          7          4  3.51573261E-02                    1_GWF-(1,11434)  1.75853772E-03                    1_GWF-(1,14800)
        305          7          5 -5.45924217E-02                    1_GWF-(1,11438)  2.20970096E-03                    1_GWF-(1,14801)
        306          7          6  5.13100589E-02                    1_GWF-(1,11438) -2.31573325E-03                    1_GWF-(1,14801)
        307          7          7  3.47403413E-02                    1_GWF-(1,11417)  2.40021708E-03                    1_GWF-(1,14801)
        308          7          8 -3.20082224E-02                    1_GWF-(1,11438)  2.03220336E-03                    1_GWF-(1,14800)
        309          7          9  4.63952892E-02                    1_GWF-(1,11438)  2.19351994E-03                    1_GWF-(1,14801)
        310          7         10  3.67568253E-02                    1_GWF-(1,11417)  1.58709364E-03                    1_GWF-(1,14800)
        311          7         11 -3.56487622E-02                    1_GWF-(1,11417)  1.29722228E-03                    1_GWF-(1,14801)
        312          7         12 -3.51828627E-02                    1_GWF-(1,11416)  7.25903889E-04                    1_GWF-(1,14800)
        313          7         13  2.45466177E-02                    1_GWF-(1,11416)  7.18105542E-04                    1_GWF-(1,10966)
        314          7         14 -3.38820346E-02                    1_GWF-(1,11417)  1.06857566E-03                    1_GWF-(1,14799)
        315          7         15 -2.66162176E-02                    1_GWF-(1,11458) -9.04167184E-04                    1_GWF-(1,14799)
        316          7         16  3.15078844E-02                    1_GWF-(1,11458)  1.39183885E-03                    1_GWF-(1,14799)
        317          7         17  3.05416042E-02                    1_GWF-(1,11415)  1.09419616E-03                    1_GWF-(1,14800)
        318          7         18 -2.23459636E-02                    1_GWF-(1,11415)  1.45320559E-03                    1_GWF-(1,14801)
        319          7         19  3.51114854E-02                    1_GWF-(1,11458)  1.30252752E-03                    1_GWF-(1,14800)
        320          7         20  2.23110031E-02                    1_GWF-(1,11415)  1.31280253E-03                    1_GWF-(1,14801)
        321          7         21 -2.05738300E-02                    1_GWF-(1,11453)  5.70528437E-04                    1_GWF-(1,14800)
        322          7         22  2.59917858E-02                    1_GWF-(1,11458)  5.20269480E-04                    1_GWF-(1,14800)
        323          7         23  2.53452859E-02                    1_GWF-(1,11453)  1.42607457E-03                    1_GWF-(1,14801)
        324          7         24  2.22809073E-02                    1_GWF-(1,11452)  1.42977432E-03                    1_GWF-(1,14800)
        325          7         25 -2.58561387E-02                    1_GWF-(1,11452)  1.58560563E-03                    1_GWF-(1,14801)
        326          7         26  2.67379573E-02                    1_GWF-(1,11453)  1.35130924E-03                    1_GWF-(1,14800)
        327          7         27 -2.25402787E-02                    1_GWF-(1,11453)  1.36021861E-03                    1_GWF-(1,14801)
        328          7         28 -1.88455119E-02                    1_GWF-(1,11452)  9.31353109E-04                    1_GWF-(1,14800)
        329          7         29 -2.08084022E-02                    1_GWF-(1,11369)  5.96959648E-04                    1_GWF-(1,14801)
        330          7         30 -1.47054987E-02                    1_GWF-(1,11453)  4.89437009E-04                    1_GWF-(1,14799)
        331          7         31 -1.17918165E-02                    1_GWF-(1,11454)  6.61227528E-04                    1_GWF-(1,14800)
        332          7         32 -1.83380581E-02                    1_GWF-(1,11369)  8.32214938E-04                    1_GWF-(1,14801)
        333          7         33 -1.08698423E-02                    1_GWF-(1,11368)  9.58727800E-04                    1_GWF-(1,14799)
        334          7         34 -1.24136926E-02                    1_GWF-(1,11454) -9.57983109E-04                    1_GWF-(1,14799)
        335          7         35 -2.11166997E-02                    1_GWF-(1,11369)  9.69517756E-04                    1_GWF-(1,14799)
        336          7         36  1.18934307E-02                    1_GWF-(1,11452) -3.93722131E-04                    1_GWF-(1,14799)
        337          7         37  1.16679139E-02                    1_GWF-(1,11368)  5.19801385E-04                    1_GWF-(1,14801)
        338          7         38 -1.86051941E-02                    1_GWF-(1,11369)  6.90921446E-04                    1_GWF-(1,14799)
        339          7         39  1.13002069E-02                    1_GWF-(1,11369) -9.71144055E-04                    1_GWF-(1,14799)
        340          7         40  1.16673320E-02                    1_GWF-(1,11368)  1.41162931E-03                    1_GWF-(1,14799)
        341          7         41 -1.24153449E-02                    1_GWF-(1,11369) -9.24838794E-04                    1_GWF-(1,14799)
        342          7         42 -1.04163353E-02                    1_GWF-(1,26665)  5.61106366E-04                    1_GWF-(1,14799)
        343          7         43 -9.70406732E-03                    1_GWF-(1,11453) -3.42642970E-04                    1_GWF-(1,10966)
        344          7         44 -8.56842330E-03                    1_GWF-(1,11369) -6.31765415E-04                    1_GWF-(1,14799)
        345          7         45  9.85106131E-03                    1_GWF-(1,26665)  1.15819257E-03                    1_GWF-(1,14799)
        346          7         46 -1.07257445E-02                    1_GWF-(1,11453) -1.22961535E-03                    1_GWF-(1,14799)
        347          7         47  1.05581566E-02                    1_GWF-(1,11453)  1.49739229E-03                    1_GWF-(1,14799)
        348          7         48 -8.13812648E-03                    1_GWF-(1,11438) -1.43253986E-03                    1_GWF-(1,14799)
        349          7         49 -7.08437057E-03                    1_GWF-(1,11372)  1.74505804E-03                    1_GWF-(1,14799)
        350          7         50  8.31273102E-03                    1_GWF-(1,11453) -1.63376826E-03                    1_GWF-(1,14799)
        351          8          1 -2.00452369E-02                    1_GWF-(1,11442)  1.84245859E-03                    1_GWF-(1,14799)
        352          8          2  5.01030985E-03                    1_GWF-(1,26666) -1.46527328E-03                    1_GWF-(1,14799)
        353          8          3  1.77887168E-02                    1_GWF-(1,11442)  1.48812848E-03                    1_GWF-(1,14799)
        354          8          4 -2.01549051E-02                    1_GWF-(1,11442) -1.21142041E-03                    1_GWF-(1,14799)
        355          8          5  9.27120536E-03                    1_GWF-(1,11453)  1.17928953E-03                    1_GWF-(1,14799)
        356          8          6  1.04274760E-02                    1_GWF-(1,11442) -7.69732805E-04                    1_GWF-(1,14799)
        357          8          7 -1.61367321E-02                    1_GWF-(1,11442)  4.02663788E-04                    1_GWF-(1,14799)
        358          8          8  7.24153478E-03                    1_GWF-(1,11453)  3.00903303E-04                    1_GWF-(1,14799)
        359          8          9  9.75486062E-03                    1_GWF-(1,11442) -6.55126395E-04                    1_GWF-(1,14799)
        360          8         10 -1.50843526E-02                    1_GWF-(1,11442)  1.02662979E-03                    1_GWF-(1,14799)
        361          8         11  7.25027739E-03                    1_GWF-(1,11438) -8.60610803E-04                    1_GWF-(1,14799)
        362          8         12  1.13942555E-02                    1_GWF-(1,11442)  6.69405198E-04                    1_GWF-(1,14799)
        363          8         13 -1.58926105E-02                    1_GWF-(1,11442)  3.08181120E-04                    1_GWF-(1,14801)
        364          8         14  6.26145327E-03                    1_GWF-(1,11438) -1.63346215E-04                    1_GWF-(1,14799)
        365          8         15  1.01164082E-02                    1_GWF-(1,11442)  5.47469681E-04                    1_GWF-(1,14799)
        366          8         16 -1.24988530E-02                    1_GWF-(1,11442) -5.59698667E-04                    1_GWF-(1,14799)
        367          8         17  6.09757068E-03                    1_GWF-(1,11438)  5.73066425E-04                    1_GWF-(1,14799)
        368          8         18  8.54875946E-03                    1_GWF-(1,11442)  3.60116950E-04                    1_GWF-(1,14801)
        369          8         19 -9.49687572E-03                    1_GWF-(1,11442)  3.00829765E-04                    1_GWF-(1,14800)
        370          8         20 -5.19082141E-03                    1_GWF-(1,26486)  2.01635379E-04                    1_GWF-(1,14799)
        371          8         21  7.07190355E-03                    1_GWF-(1,11442) -2.88134568E-04                    1_GWF-(1,14799)
        372          8         22 -6.72497260E-03                    1_GWF-(1,11442)  3.54752120E-04                    1_GWF-(1,14799)
        373          8         23 -6.73160287E-03                    1_GWF-(1,11458)  4.93126642E-04                    1_GWF-(1,14801)
        374          8         24  7.55256361E-03                    1_GWF-(1,11442)  4.82572842E-04                    1_GWF-(1,14800)
        375          8         25 -8.57564851E-03                    1_GWF-(1,11442)  5.23584290E-04                    1_GWF-(1,14801)
        376          8         26 -8.92072100E-03                    1_GWF-(1,11458)  4.92946351E-04                    1_GWF-(1,14800)
        377          8         27  7.60540641E-03                    1_GWF-(1,11458)  4.98881590E-04                    1_GWF-(1,14801)
        378          8         28 -6.94365135E-03                    1_GWF-(1,11442)  2.10976150E-04                    1_GWF-(1,14800)
        379          8         29 -7.01767377E-03                    1_GWF-(1,11458)  1.42756873E-04                    1_GWF-(1,14799)
        380          8         30  5.20402471E-03                    1_GWF-(1,11442)  3.40006115E-04                    1_GWF-(1,14801)
        381          8         31 -4.96860679E-03                    1_GWF-(1,11415)  3.60791923E-04                    1_GWF-(1,14800)
        382          8         32 -7.85502749E-03                    1_GWF-(1,11458)  4.35752936E-04                    1_GWF-(1,14801)
        383          8         33  4.73890831E-03                    1_GWF-(1,11458)  3.26608356E-04                    1_GWF-(1,14800)
        384          8         34 -4.99886712E-03                    1_GWF-(1,11415)  3.64810146E-04                    1_GWF-(1,14799)
        385          8         35 -5.82401114E-03                    1_GWF-(1,11458) -2.38597598E-04                    1_GWF-(1,14799)
        386          8         36  4.74959809E-03                    1_GWF-(1,11458)  2.85805393E-04                    1_GWF-(1,14799)
        387          8         37 -4.36460698E-03                    1_GWF-(1,11442)  1.64864211E-04                    1_GWF-(1,14798)
        388          8         38 -4.39771753E-03                    1_GWF-(1,26422)  1.69663506E-04                    1_GWF-(1,14799)
        389          8         39 -5.43517554E-03                    1_GWF-(1,11438)  2.39978000E-04                    1_GWF-(1,14801)
        390          8         40 -4.56945463E-03                    1_GWF-(1,11442)  3.08249084E-04                    1_GWF-(1,14800)
        391          8         41 -3.21317279E-03                    1_GWF-(1,11435)  4.37959203E-04                    1_GWF-(1,14801)
        392          8         42 -5.84257040E-03                    1_GWF-(1,11438)  4.06192899E-04                    1_GWF-(1,14800)
        393          8         43  4.51152765E-03                    1_GWF-(1,11438)  4.41570530E-04                    1_GWF-(1,14801)
        394          8         44 -3.60701803E-03                    1_GWF-(1,11434)  3.88138857E-04                    1_GWF-(1,14800)
        395          8         45 -5.85907785E-03                    1_GWF-(1,11438)  4.33278400E-04                    1_GWF-(1,14801)
        396          8         46  5.91668891E-03                    1_GWF-(1,11438)  3.33089385E-04                    1_GWF-(1,14800)
        397          8         47 -3.24410059E-03                    1_GWF-(1,11453)  3.89780138E-04                    1_GWF-(1,14801)
        398          8         48 -5.62608480E-03                    1_GWF-(1,11425)  3.01056137E-04                    1_GWF-(1,14800)
        399          8         49  4.96097355E-03                    1_GWF-(1,11438)  2.22445091E-04                    1_GWF-(1,14801)
        400          8         50  5.97968075E-03                    1_GWF-(1,11417)  2.51062751E-04                    1_GWF-(1,14800)
        401          9          1 -4.75042959E-03                    1_GWF-(1,11417)  9.95914035E-05                    1_GWF-(1,14801)
        402          9          2 -2.89608020E-03                    1_GWF-(1,11438)  2.97904942E-04                    1_GWF-(1,14800)
        403          9          3  2.04041784E-03                    1_GWF-(1,11438)  3.95689377E-04                    1_GWF-(1,14801)
        404          9          4  2.71020646E-03                    1_GWF-(1,11434)  2.59013126E-04                    1_GWF-(1,14800)
        405          9          5 -3.54997462E-03                    1_GWF-(1,11438)  3.43521143E-04                    1_GWF-(1,14801)
        406          9          6  2.82642703E-03                    1_GWF-(1,11438) -3.84079277E-04                    1_GWF-(1,14801)
        407          9          7 -2.53923347E-03                    1_GWF-(1,26350)  3.59936716E-04                    1_GWF-(1,14801)
        408          9          8 -2.44557266E-03                    1_GWF-(1,11424)  2.99311419E-04                    1_GWF-(1,14800)
        409          9          9  2.97876433E-03                    1_GWF-(1,11424)  3.54005195E-04                    1_GWF-(1,14801)
        410          9         10  1.81864359E-03                    1_GWF-(1,11417)  2.48234321E-04                    1_GWF-(1,14800)
        411          9         11 -2.00403829E-03                    1_GWF-(1,11417)  1.80937543E-04                    1_GWF-(1,14801)
        412          9         12  3.23742342E-03                    1_GWF-(1,11424)  1.07450163E-04                    1_GWF-(1,14799)
        413          9         13  2.46605018E-03                    1_GWF-(1,26422)  9.84880779E-05                    1_GWF-(1,14798)
        414          9         14  2.70342754E-03                    1_GWF-(1,26487)  1.07259699E-04                    1_GWF-(1,14801)
        415          9         15  2.68448614E-03                    1_GWF-(1,26486)  1.13809750E-04                    1_GWF-(1,14800)
        416          9         16  2.34141021E-03                    1_GWF-(1,26422)  7.67170018E-05                    1_GWF-(1,14798)
        417          9         17  1.90822108E-03                    1_GWF-(1,26350)  1.58640386E-04                    1_GWF-(1,14799)
        418          9         18 -2.71880817E-03                    1_GWF-(1,11458) -1.41674508E-04                    1_GWF-(1,14799)
        419          9         19 -2.30629457E-03                    1_GWF-(1,26422)  2.19087116E-04                    1_GWF-(1,14799)
        420          9         20  2.36259999E-03                    1_GWF-(1,26623)  1.59200425E-04                    1_GWF-(1,14800)
        421          9         21 -2.78313855E-03                    1_GWF-(1,11458)  1.77719758E-04                    1_GWF-(1,14801)
        422          9         22 -2.08136998E-03                    1_GWF-(1,26622)  8.58004894E-05                    1_GWF-(1,14800)
        423          9         23 -3.08673568E-03                    1_GWF-(1,26649)  1.00010509E-04                    1_GWF-(1,14798)
        424          9         24 -3.28344461E-03                    1_GWF-(1,26622)  1.94746127E-04                    1_GWF-(1,14799)
        425          9         25 -2.32126667E-03                    1_GWF-(1,26649) -1.95677815E-04                    1_GWF-(1,14801)
        426          9         26  1.72965437E-03                    1_GWF-(1,11458)  2.25100987E-04                    1_GWF-(1,14801)
        427          9         27 -1.93405518E-03                    1_GWF-(1,11458) -1.89070333E-04                    1_GWF-(1,14801)
        428          9         28 -1.53751694E-03                    1_GWF-(1,11453)  2.05622843E-04                    1_GWF-(1,14801)
        429          9         29  1.58889333E-03                    1_GWF-(1,11453)  1.77069882E-04                    1_GWF-(1,14800)
        430          9         30  1.41056181E-03                    1_GWF-(1,11438)  1.90289732E-04                    1_GWF-(1,14801)
        431          9         31 -1.74949121E-03                    1_GWF-(1,26217)  1.59671852E-04                    1_GWF-(1,14800)
        432          9         32  1.62038169E-03                    1_GWF-(1,11453)  1.39354501E-04                    1_GWF-(1,14801)
        433          9         33 -1.29105570E-03                    1_GWF-(1,26665)  1.60104683E-04                    1_GWF-(1,14799)
        434          9         34 -1.16829385E-03                    1_GWF-(1,11408) -1.23918211E-04                    1_GWF-(1,14799)
        435          9         35 -1.57192243E-03                    1_GWF-(1,11369)  9.32833860E-05                    1_GWF-(1,14799)
        436          9         36  1.58523621E-03                    1_GWF-(1,26218)  7.01945873E-05                    1_GWF-(1,14800)
        437          9         37  1.44849588E-03                    1_GWF-(1,11369)  1.01233545E-04                    1_GWF-(1,14801)
        438          9         38 -1.63931908E-03                    1_GWF-(1,11369)  1.91607810E-04                    1_GWF-(1,14799)
        439          9         39 -1.13669262E-03                    1_GWF-(1,26543) -2.02661283E-04                    1_GWF-(1,14799)
        440          9         40 -1.37541814E-03                    1_GWF-(1,11453)  2.26244443E-04                    1_GWF-(1,14799)
        441          9         41  1.40199759E-03                    1_GWF-(1,11453) -1.37730102E-04                    1_GWF-(1,14799)
        442          9         42 -1.39767654E-03                    1_GWF-(1,26665)  8.20526615E-05                    1_GWF-(1,14799)
        443          9         43 -1.32420531E-03                    1_GWF-(1,11453)  4.72432189E-05                    1_GWF-(1,14800)
        444          9         44  1.28767738E-03                    1_GWF-(1,11453) -1.06539174E-04                    1_GWF-(1,14799)
        445          9         45  1.34741818E-03                    1_GWF-(1,26665)  1.86435714E-04                    1_GWF-(1,14799)
        446          9         46 -1.29068147E-03                    1_GWF-(1,11453) -1.95677361E-04                    1_GWF-(1,14799)
        447          9         47  1.37410125E-03                    1_GWF-(1,11453)  2.21974639E-04                    1_GWF-(1,14799)
        448          9         48  1.10725004E-03                    1_GWF-(1,26218) -2.14684697E-04                    1_GWF-(1,14799)
        449          9         49 -8.66069172E-04                    1_GWF-(1,26666)  2.95615231E-04                    1_GWF-(1,14799)
        450          9         50  9.02459342E-04                    1_GWF-(1,11453) -2.38548174E-04                    1_GWF-(1,14799)
        451         10          1 -8.72523771E-04                    1_GWF-(1,11453)  3.08913667E-04                    1_GWF-(1,14799)
        452         10          2  8.39431941E-04                    1_GWF-(1,26666) -2.07159735E-04                    1_GWF-(1,14799)
        453         10          3 -9.09182432E-04                    1_GWF-(1,26218)  2.07120307E-04                    1_GWF-(1,14799)
        454         10          4 -1.33817504E-03                    1_GWF-(1,11453) -1.87530719E-04                    1_GWF-(1,14799)
        455         10          5  1.07973852E-03                    1_GWF-(1,11453)  1.73400023E-04                    1_GWF-(1,14799)
        456         10          6 -1.03432481E-03                    1_GWF-(1,26665) -1.01617909E-04                    1_GWF-(1,14799)
        457         10          7 -1.14063039E-03                    1_GWF-(1,11453)  4.76544945E-05                    1_GWF-(1,14799)
        458         10          8  9.71491046E-04                    1_GWF-(1,11453)  5.04061733E-05                    1_GWF-(1,14799)
        459         10          9  1.02419119E-03                    1_GWF-(1,26665) -9.59210936E-05                    1_GWF-(1,14799)
        460         10         10 -1.03483519E-03                    1_GWF-(1,11453)  1.61322776E-04                    1_GWF-(1,14799)
        461         10         11  9.16867337E-04                    1_GWF-(1,11438) -1.37292544E-04                    1_GWF-(1,14799)
        462         10         12  9.53268931E-04                    1_GWF-(1,26543)  9.88766944E-05                    1_GWF-(1,14799)
[...]
        685         14         35 -1.54086202E-05                    1_GWF-(1,26422)  1.38330182E-06                    1_GWF-(1,14799)
        686         14         36 -1.50634934E-05                    1_GWF-(1,26350)  9.48129644E-07                    1_GWF-(1,14798)
        687         14         37 -1.36906522E-05                    1_GWF-(1,26422)  1.10030902E-06                    1_GWF-(1,14799)
        688         14         38 -1.16912139E-05                    1_GWF-(1,26350) -6.50289229E-07                    1_GWF-(1,14799)
        689         14         39 -1.04983114E-05                    1_GWF-(1,11454)  7.45739373E-07                    1_GWF-(1,14800)
        690         14         40 -9.40778318E-06                    1_GWF-(1,11418)  9.17626663E-07                    1_GWF-(1,14801)
        691         14         41 -9.62352691E-06                    1_GWF-(1,26486)  7.46706654E-07                    1_GWF-(1,14800)
        692         14         42 -1.14081951E-05                    1_GWF-(1,26622)  5.52529157E-07                    1_GWF-(1,14799)
        693         14         43 -1.07508178E-05                    1_GWF-(1,26649)  5.81495529E-07                    1_GWF-(1,14801)
        694         14         44  1.11481020E-05                    1_GWF-(1,26420) -7.25384220E-07                    1_GWF-(1,14801)
        695         14         45  1.15111728E-05                    1_GWF-(1,26421)  1.13753485E-06                    1_GWF-(1,14801)
        696         14         46 -1.00309710E-05                    1_GWF-(1,11420)  1.17412192E-06                    1_GWF-(1,14800)
        697         14         47 -1.10900817E-05                    1_GWF-(1,11415)  1.42721116E-06                    1_GWF-(1,14801)
        698         14         48  7.83886727E-06                    1_GWF-(1,26543)  1.39915806E-06                    1_GWF-(1,14800)
        699         14         49  7.66648649E-06                    1_GWF-(1,26588)  1.83139131E-06                    1_GWF-(1,14801)
        700         14         50  9.04798547E-06                    1_GWF-(1,11435) -1.22718609E-06                    1_GWF-(1,14801)
        701         15          1 -9.04984842E-06                    1_GWF-(1,11453)  1.86232449E-06                    1_GWF-(1,14801)
        702         15          2 -9.72531086E-06                    1_GWF-(1,26588)  1.37248087E-06                    1_GWF-(1,14800)
        703         15          3 -1.04997215E-05                    1_GWF-(1,26543)  8.99928358E-07                    1_GWF-(1,14801)
        704         15          4 -1.16030422E-05                    1_GWF-(1,26588)  4.09319739E-07                    1_GWF-(1,14799)
        705         15          5 -1.17372957E-05                    1_GWF-(1,26486)  9.77324170E-07                    1_GWF-(1,14800)
        706         15          6 -9.33790354E-06                    1_GWF-(1,26487)  1.34462888E-06                    1_GWF-(1,14801)
        707         15          7 -8.05741683E-06                    1_GWF-(1,26422) -1.14254783E-06                    1_GWF-(1,14801)
        708         15          8  7.78811159E-06                    1_GWF-(1,11453)  1.33179778E-06                    1_GWF-(1,14801)
        709         15          9  7.20744300E-06                    1_GWF-(1,11454)  1.07047756E-06                    1_GWF-(1,14800)
        710         15         10  7.98848980E-06                    1_GWF-(1,26588)  8.74709241E-07                    1_GWF-(1,14801)
        711         15         11 -6.70093670E-06                    1_GWF-(1,11436)  3.79369159E-07                    1_GWF-(1,14800)
        712         15         12  7.32978840E-06                    1_GWF-(1,26588) -3.06337598E-07                    1_GWF-(1,14799)
        713         15         13 -8.32427330E-06                    1_GWF-(1,26588)  6.69616653E-07                    1_GWF-(1,14801)
        714         15         14  8.61218860E-06                    1_GWF-(1,26420)  5.96067280E-07                    1_GWF-(1,14800)
        715         15         15  7.85552576E-06                    1_GWF-(1,26422)  6.08877174E-07                    1_GWF-(1,14801)
        716         15         16  7.19595971E-06                    1_GWF-(1,26420)  4.20789180E-07                    1_GWF-(1,14800)
        717         15         17  6.54926871E-06                    1_GWF-(1,11451)  4.08465780E-07                    1_GWF-(1,14798)
        718         15         18  5.44458203E-06                    1_GWF-(1,26666)  7.52100430E-07                    1_GWF-(1,14799)
        719         15         19  7.80282958E-06                    1_GWF-(1,26665) -5.81788633E-07                    1_GWF-(1,14799)
        720         15         20 -7.60424166E-06                    1_GWF-(1,26486)  6.48348823E-07                    1_GWF-(1,14799)
        721         15         21  7.32361655E-06                    1_GWF-(1,26665) -4.45060200E-07                    1_GWF-(1,14801)
        722         15         22 -8.18117777E-06                    1_GWF-(1,26665) -3.02755651E-07                    1_GWF-(1,10966)
        723         15         23  8.47046065E-06                    1_GWF-(1,11416)  6.54340300E-07                    1_GWF-(1,14799)
        724         15         24 -7.67683999E-06                    1_GWF-(1,26649) -5.96520729E-07                    1_GWF-(1,14799)
        725         15         25 -8.40225570E-06                    1_GWF-(1,26622)  6.39221671E-07                    1_GWF-(1,14799)
        726         15         26 -7.40804195E-06                    1_GWF-(1,26649)  3.00465269E-07                    1_GWF-(1,14800)
        727         15         27  5.38324919E-06                    1_GWF-(1,26649) -2.86768347E-07                    1_GWF-(1,10966)
        728         15         28  7.00114832E-06                    1_GWF-(1,26622)  6.63723533E-07                    1_GWF-(1,14799)
        729         15         29 -6.40889397E-06                    1_GWF-(1,11415) -6.17969763E-07                    1_GWF-(1,14799)
        730         15         30 -6.48901797E-06                    1_GWF-(1,11416)  6.04904565E-07                    1_GWF-(1,14799)
        731         15         31 -6.17752538E-06                    1_GWF-(1,10734)  4.16866556E-07                    1_GWF-(1,14800)
        732         15         32  4.80485083E-06                    1_GWF-(1,26544)  4.28932515E-07                    1_GWF-(1,14801)
        733         15         33  7.17619643E-06                    1_GWF-(1,11415)  4.66788679E-07                    1_GWF-(1,14800)
        734         15         34 -8.71322672E-06                    1_GWF-(1,11415)  5.85821150E-07                    1_GWF-(1,14801)
        735         15         35  6.90605517E-06                    1_GWF-(1,11411)  6.44852684E-07                    1_GWF-(1,10966)
        736         15         36  6.30789782E-06                    1_GWF-(1,11412) -8.51945907E-07                    1_GWF-(1,10966)
        737         15         37 -5.57896723E-06                    1_GWF-(1,11414)  8.12160262E-07                    1_GWF-(1,10966)
        738         15         38  6.86214162E-06                    1_GWF-(1,11420) -6.76716966E-07                    1_GWF-(1,10966)
        739         15         39 -5.77014534E-06                    1_GWF-(1,11411)  5.54575989E-07                    1_GWF-(1,14799)
        740         15         40 -6.24234474E-06                    1_GWF-(1,26487) -1.52085182E-07                    1_GWF-(1,14799)
        741         15         41 -7.27483769E-06                    1_GWF-(1,26420) -3.69566209E-07                    1_GWF-(1,10966)
        742         15         42 -7.73993526E-06                    1_GWF-(1,26487)  5.33576497E-07                    1_GWF-(1,14799)
        743         15         43  5.99892095E-06                    1_GWF-(1,10712) -5.20102989E-07                    1_GWF-(1,14799)
        744         15         44 -6.68043555E-06                    1_GWF-(1,11423)  5.17576772E-07                    1_GWF-(1,14799)
        745         15         45 -5.38883202E-06                    1_GWF-(1,10712)  2.11912906E-07                    1_GWF-(1,14798)
        746         15         46 -6.28390975E-06                    1_GWF-(1,10736) -2.78788652E-07                    1_GWF-(1,10966)
        747         15         47 -8.23135721E-06                    1_GWF-(1,11423)  4.18863311E-07                    1_GWF-(1,14799)
        748         15         48 -8.95945836E-06                    1_GWF-(1,11424) -4.62220289E-07                    1_GWF-(1,14799)
        749         15         49  1.09057137E-05                    1_GWF-(1,11420)  5.94949191E-07                    1_GWF-(1,14799)
        750         15         50  1.98879725E-05                    1_GWF-(1,11427) -4.45910130E-07                    1_GWF-(1,14799)
        751         16          1 -1.81162375E-05                    1_GWF-(1,11427)  7.28786817E-07                    1_GWF-(1,14799)
        752         16          2 -9.67791554E-06                    1_GWF-(1,11426) -5.09772847E-07                    1_GWF-(1,14799)
        753         16          3  1.39685606E-05                    1_GWF-(1,11427)  1.32565001E-07                    1_GWF-(1,14799)
        754         16          4  8.95479285E-06                    1_GWF-(1,11426)  4.16210136E-07                    1_GWF-(1,14799)
        755         16          5 -6.58556725E-06                    1_GWF-(1,11427) -6.58257767E-07                    1_GWF-(1,14799)
        756         16          6  6.30586724E-06                    1_GWF-(1,11427)  8.53561361E-07                    1_GWF-(1,14799)
        757         16          7 -5.42573474E-06                    1_GWF-(1,10742) -8.17528348E-07                    1_GWF-(1,14799)
        758         16          8 -5.68480833E-06                    1_GWF-(1,10712)  7.50964825E-07                    1_GWF-(1,14799)
        759         16          9  5.07308492E-06                    1_GWF-(1,26487) -3.10060606E-07                    1_GWF-(1,14799)
        760         16         10  5.44322224E-06                    1_GWF-(1,26486)  1.03029695E-07                    1_GWF-(1,14798)
        761         16         11  4.83369618E-06                    1_GWF-(1,26487)  5.75810624E-07                    1_GWF-(1,14799)
        762         16         12 -3.58786628E-06                    1_GWF-(1,26487) -5.93483580E-07                    1_GWF-(1,14799)
        763         16         13 -4.40585251E-06                    1_GWF-(1,11420)  5.43356009E-07                    1_GWF-(1,14799)
        764         16         14 -4.38713785E-06                    1_GWF-(1,11424) -2.65640672E-07                    1_GWF-(1,14799)
        765         16         15 -3.61465039E-06                    1_GWF-(1,11423) -1.21025540E-07                    1_GWF-(1,14801)
        766         16         16 -3.80908222E-06                    1_GWF-(1,26588)  2.52397719E-07                    1_GWF-(1,14799)
        767         16         17 -2.97522453E-06                    1_GWF-(1,26543) -2.82211694E-07                    1_GWF-(1,14799)
        768         16         18  3.27407477E-06                    1_GWF-(1,11411)  2.82039622E-07                    1_GWF-(1,14799)
        769         16         19 -2.79250794E-06                    1_GWF-(1,11415)  1.78980596E-07                    1_GWF-(1,14801)
        770         16         20  3.32079452E-06                    1_GWF-(1,11415)  2.08074361E-07                    1_GWF-(1,14800)
        771         16         21 -2.53896558E-06                    1_GWF-(1,11415)  2.09252656E-07                    1_GWF-(1,14801)
        772         16         22 -3.01182622E-06                    1_GWF-(1,10734) -2.03146523E-07                    1_GWF-(1,14801)
        773         16         23  2.23748135E-06                    1_GWF-(1,10742)  2.34520963E-07                    1_GWF-(1,14801)
        774         16         24 -2.32904802E-06                    1_GWF-(1,11415)  1.53015733E-07                    1_GWF-(1,14798)
        775         16         25  2.50461375E-06                    1_GWF-(1,26665)  1.69269419E-07                    1_GWF-(1,14799)
        776         16         26  2.94384356E-06                    1_GWF-(1,11424)  1.51388047E-07                    1_GWF-(1,14801)
        777         16         27  2.16897201E-06                    1_GWF-(1,26622)  2.16756022E-07                    1_GWF-(1,14800)
        778         16         28 -2.13070084E-06                    1_GWF-(1,26486)  2.24470248E-07                    1_GWF-(1,14801)
        779         16         29  2.52445788E-06                    1_GWF-(1,26486) -1.54414697E-07                    1_GWF-(1,14801)
        780         16         30  2.78914385E-06                    1_GWF-(1,26487)  1.11779426E-07                    1_GWF-(1,14799)
        781         16         31  2.92113888E-06                    1_GWF-(1,26486)  1.39727754E-07                    1_GWF-(1,14801)
        782         16         32  1.90679393E-06                    1_GWF-(1,26487)  1.54484494E-07                    1_GWF-(1,14800)
        783         16         33  1.36272626E-06                    1_GWF-(1,11451)  1.77896574E-07                    1_GWF-(1,14799)
        784         16         34 -1.60433453E-06                    1_GWF-(1,11427)  1.23142127E-07                    1_GWF-(1,14800)
        785         16         35 -1.60318978E-06                    1_GWF-(1,26422)  1.37054378E-07                    1_GWF-(1,14799)
        786         16         36 -1.69366058E-06                    1_GWF-(1,26350)  7.88318199E-08                    1_GWF-(1,14798)
        787         16         37  1.72247797E-06                    1_GWF-(1,26622)  9.97670503E-08                    1_GWF-(1,10966)
        788         16         38  2.05240259E-06                    1_GWF-(1,26649)  1.04191950E-07                    1_GWF-(1,14801)
        789         16         39 -1.53142411E-06                    1_GWF-(1,26649)  7.24828392E-08                    1_GWF-(1,14798)
        790         16         40 -1.29207089E-06                    1_GWF-(1,26622)  1.27692930E-07                    1_GWF-(1,14799)
        791         16         41  1.06696118E-06                    1_GWF-(1,11454) -1.02277298E-07                    1_GWF-(1,10966)
        792         16         42 -1.17912634E-06                    1_GWF-(1,11436)  1.41623790E-07                    1_GWF-(1,10966)
        793         16         43  1.22958835E-06                    1_GWF-(1,26422)  1.36059207E-07                    1_GWF-(1,14801)
        794         16         44  1.29650806E-06                    1_GWF-(1,26420)  7.08017772E-08                    1_GWF-(1,14800)
        795         16         45  1.24128022E-06                    1_GWF-(1,26487)  5.54540653E-08                    1_GWF-(1,10966)
        796         16         46  1.38338426E-06                    1_GWF-(1,26588) -7.96269506E-08                    1_GWF-(1,10966)
        797         16         47  1.14571633E-06                    1_GWF-(1,26487)  1.30230839E-07                    1_GWF-(1,10966)
        798         16         48 -1.27679284E-06                    1_GWF-(1,11415)  1.20740580E-07                    1_GWF-(1,14801)
        799         16         49  1.03529841E-06                    1_GWF-(1,11415)  1.16778626E-07                    1_GWF-(1,14800)
        800         16         50  6.75589190E-07                    1_GWF-(1,11453)  1.07020519E-07                    1_GWF-(1,14801)
        801         17          1 -8.68305321E-07                    1_GWF-(1,26622)  1.40638844E-07                    1_GWF-(1,14800)
 --------------------------------------------------------------------------------------------------------------------------------------


 UBDSV1 SAVING     FLOW-JA-FACE ON UNIT   1020 AT TIME STEP      1, STRESS PERIOD      1
 UBDSV06 SAVING       DATA-SPDIS IN MODEL ML               PACKAGE NPF             CONNECTED TO MODEL ML               PACKAGE NPF              ON UNIT   1020 AT TIME STEP      1, STRESS PERIOD      1
 UBDSV06 SAVING              WEL IN MODEL ML               PACKAGE ML              CONNECTED TO MODEL ML               PACKAGE WEL_0            ON UNIT   1020 AT TIME STEP      1, STRESS PERIOD      1
 UBDSV06 SAVING              DRN IN MODEL ML               PACKAGE ML              CONNECTED TO MODEL ML               PACKAGE DRN_0            ON UNIT   1020 AT TIME STEP      1, STRESS PERIOD      1
 UBDSV06 SAVING              RIV IN MODEL ML               PACKAGE ML              CONNECTED TO MODEL ML               PACKAGE RIV_0            ON UNIT   1020 AT TIME STEP      1, STRESS PERIOD      1
 UBDSV06 SAVING              GHB IN MODEL ML               PACKAGE ML              CONNECTED TO MODEL ML               PACKAGE GHB_0            ON UNIT   1020 AT TIME STEP      1, STRESS PERIOD      1
 UBDSV06 SAVING              RCH IN MODEL ML               PACKAGE ML              CONNECTED TO MODEL ML               PACKAGE RCHA_0           ON UNIT   1020 AT TIME STEP      1, STRESS PERIOD      1

 HEAD WILL BE SAVED ON UNIT 1021 AT END OF TIME STEP    1, STRESS PERIOD    1


  VOLUME BUDGET FOR ENTIRE MODEL AT END OF TIME STEP    1, STRESS PERIOD   1
  ---------------------------------------------------------------------------------------------------

     CUMULATIVE VOLUME      L**3       RATES FOR THIS TIME STEP      L**3/T          PACKAGE NAME    
     ------------------                 ------------------------                     ----------------

           IN:                                      IN:
           ---                                      ---
                 WEL =           0.0000                   WEL =           0.0000     WEL_0           
                 DRN =           0.0000                   DRN =           0.0000     DRN_0           
                 RIV =           4.8133                   RIV =           1.2033     RIV_0           
                 GHB =           5.5427                   GHB =           1.3857     GHB_0           
                 RCH =           3.3054                   RCH =           0.8264     RCHA_0          

            TOTAL IN =          13.6614              TOTAL IN =           3.4153

          OUT:                                     OUT:
          ----                                     ----
                 WEL =           0.8792                   WEL =           0.2198     WEL_0           
                 DRN =           0.7847                   DRN =           0.1962     DRN_0           
                 RIV =          11.4241                   RIV =           2.8560     RIV_0           
                 GHB =           0.5734                   GHB =           0.1434     GHB_0           
                 RCH =           0.0000                   RCH =           0.0000     RCHA_0          

           TOTAL OUT =          13.6614             TOTAL OUT =           3.4154

            IN - OUT =      -5.9742E-06              IN - OUT =      -1.4936E-06

 PERCENT DISCREPANCY =          -0.00     PERCENT DISCREPANCY =          -0.00




         TIME SUMMARY AT END OF TIME STEP    1 IN STRESS PERIOD    1
                    SECONDS     MINUTES      HOURS       DAYS        YEARS
                    -----------------------------------------------------------
   TIME STEP LENGTH  4.0000     6.66667E-02 1.11111E-03 4.62963E-05 1.26752E-07
 STRESS PERIOD TIME  4.0000     6.66667E-02 1.11111E-03 4.62963E-05 1.26752E-07
         TOTAL TIME  4.0000     6.66667E-02 1.11111E-03 4.62963E-05 1.26752E-07


end timestep

