                                   MODFLOW 6
                U.S. GEOLOGICAL SURVEY MODULAR HYDROLOGIC MODEL
                          GROUNDWATER FLOW MODEL (GWF)
                            VERSION 6.2.2 07/30/2021

   MODFLOW 6 compiled Jul 31 2021 14:22:53 with IFORT compiler (ver. 19.10.3)

This software has been approved for release by the U.S. Geological 
Survey (USGS). Although the software has been subjected to rigorous 
review, the USGS reserves the right to update the software as needed 
pursuant to further analysis and review. No warranty, expressed or 
implied, is made by the USGS or the U.S. Government as to the 
functionality of the software and related material nor shall the 
fact of release constitute any such warranty. Furthermore, the 
software is released on condition that neither the USGS nor the U.S. 
Government shall be held liable for any damages resulting from its 
authorized or unauthorized use. Also refer to the USGS Water 
Resources Software User Rights Notice for complete use, copyright, 
and distribution information.


System command used to initiate simulation:
mf6

MODFLOW was compiled using uniform precision.

Real Variables
  KIND: 8
  TINY (smallest non-zero value):    2.225074-308
  HUGE (largest value):    1.797693+308
  PRECISION: 15
  BIT SIZE: 64

Integer Variables
  KIND: 4
  HUGE (largest value): 2147483647
  BIT SIZE: 32

Long Integer Variables
  KIND: 8
  HUGE (largest value): 9223372036854775807
  BIT SIZE: 64

Logical Variables
  KIND: 4
  BIT SIZE: 32
 

 OPENED ./ml.disv
 FILE TYPE:DISV6                  UNIT 1005   STATUS:OLD                 
 FORMAT:FORMATTED              ACCESS:SEQUENTIAL          
 ACTION:READ                


 OPENED ./ml.ic
 FILE TYPE:IC6                    UNIT 1006   STATUS:OLD                 
 FORMAT:FORMATTED              ACCESS:SEQUENTIAL          
 ACTION:READ                


 OPENED ./ml.npf
 FILE TYPE:NPF6                   UNIT 1007   STATUS:OLD                 
 FORMAT:FORMATTED              ACCESS:SEQUENTIAL          
 ACTION:READ                


 OPENED ./ml.ghb
 FILE TYPE:GHB6                   UNIT 1008   STATUS:OLD                 
 FORMAT:FORMATTED              ACCESS:SEQUENTIAL          
 ACTION:READ                


 OPENED ./ml.rcha
 FILE TYPE:RCH6                   UNIT 1009   STATUS:OLD                 
 FORMAT:FORMATTED              ACCESS:SEQUENTIAL          
 ACTION:READ                


 OPENED ./ml.obs
 FILE TYPE:OBS6                   UNIT 1010   STATUS:OLD                 
 FORMAT:FORMATTED              ACCESS:SEQUENTIAL          
 ACTION:READ                


 OPENED ./ml.oc
 FILE TYPE:OC6                    UNIT 1011   STATUS:OLD                 
 FORMAT:FORMATTED              ACCESS:SEQUENTIAL          
 ACTION:READ                


 OPENED ml.wel
 FILE TYPE:WEL6                   UNIT 1012   STATUS:OLD                 
 FORMAT:FORMATTED              ACCESS:SEQUENTIAL          
 ACTION:READ                


 OPENED ml.drn
 FILE TYPE:DRN6                   UNIT 1013   STATUS:OLD                 
 FORMAT:FORMATTED              ACCESS:SEQUENTIAL          
 ACTION:READ                


 OPENED ml.riv
 FILE TYPE:RIV6                   UNIT 1014   STATUS:OLD                 
 FORMAT:FORMATTED              ACCESS:SEQUENTIAL          
 ACTION:READ                


 DISV -- VERTEX GRID DISCRETIZATION PACKAGE, VERSION 1 : 12/23/2015 - INPUT READ FROM UNIT 1005


 # File generated by Flopy version 3.3.5 on 04/28/2022 at 15:58:53.

 PROCESSING DISCRETIZATION OPTIONS
    MODEL LENGTH UNIT IS METERS
    XORIGIN SPECIFIED AS     405575.681000000    
    YORIGIN SPECIFIED AS     6423306.54000000    
 END OF DISCRETIZATION OPTIONS

 PROCESSING DISCRETIZATION DIMENSIONS
   NLAY = 1
   NCPL = 26674
   NVERT = 27090
 END OF DISCRETIZATION DIMENSIONS

 PROCESSING GRIDDATA
 END PROCESSING GRIDDATA

 PROCESSING VERTICES
   SUCCESSFULLY READ 27090 (X,Y) COORDINATES
   MINIMUM X COORDINATE =     405575.681000000    
   MAXIMUM X COORDINATE =     413975.681000000    
   MINIMUM Y COORDINATE =     6423306.54000000    
   MAXIMUM Y COORDINATE =     6432506.54000000    
 END PROCESSING VERTICES

 PROCESSING CELL2D
   SUCCESSFULLY READ 26674 CELL2D INFORMATION ENTRIES
   MINIMUM X CELL CENTER =     405675.681000000    
   MAXIMUM X CELL CENTER =     413875.681000000    
   MINIMUM Y CELL CENTER =     6423406.54000000    
   MAXIMUM Y CELL CENTER =     6432406.54000000    
   MAXIMUM NUMBER OF CELL2D VERTICES IS 6 FOR CELL 208
 END PROCESSING VERTICES

 NPF -- NODE PROPERTY FLOW PACKAGE, VERSION 1, 3/30/2015 INPUT READ FROM UNIT 1007


 # File generated by Flopy version 3.3.5 on 04/28/2022 at 15:58:55.
 PROCESSING NPF OPTIONS
    CELL-BY-CELL FLOW INFORMATION WILL BE SAVED TO BINARY FILE WHENEVER ICBCFL IS NOT ZERO.
    SPECIFIC DISCHARGE WILL BE CALCULATED AT CELL CENTERS AND WRITTEN TO DATA-SPDIS IN BUDGET FILE WHEN REQUESTED.
 END OF NPF OPTIONS

 WEL   -- WEL PACKAGE, VERSION 8, 2/22/2014 INPUT READ FROM UNIT 1012
 # File generated by Flopy version 3.3.5 on 04/28/2022 at 15:58:56.

 PROCESSING WEL OPTIONS
    WEL BOUNDARIES HAVE NAMES IN LAST COLUMN.
    FLOWS WILL BE SAVED TO BUDGET FILE SPECIFIED IN OUTPUT CONTROL
 END OF WEL OPTIONS

 PROCESSING WEL DIMENSIONS
    MAXBOUND =       9
 END OF WEL DIMENSIONS

 DRN   -- DRN PACKAGE, VERSION 8, 2/22/2014 INPUT READ FROM UNIT 1013
 # File generated by Flopy version 3.3.5 on 04/28/2022 at 15:58:56.

 PROCESSING DRN OPTIONS
    DRN BOUNDARIES HAVE NAMES IN LAST COLUMN.
    FLOWS WILL BE SAVED TO BUDGET FILE SPECIFIED IN OUTPUT CONTROL

 OPENED ml.drn.obs
 FILE TYPE:OBS   UNIT 1016   STATUS:OLD                 
 FORMAT:FORMATTED              ACCESS:SEQUENTIAL          
 ACTION:READ                

 END OF DRN OPTIONS

 PROCESSING DRN DIMENSIONS
    MAXBOUND =     133
 END OF DRN DIMENSIONS

 RIV   -- RIV PACKAGE, VERSION 8, 2/22/2014 INPUT READ FROM UNIT 1014
 # File generated by Flopy version 3.3.5 on 04/28/2022 at 15:58:56.

 PROCESSING RIV OPTIONS
    AUXILIARY RIV VARIABLE: FID             
    RIV BOUNDARIES HAVE NAMES IN LAST COLUMN.
    FLOWS WILL BE SAVED TO BUDGET FILE SPECIFIED IN OUTPUT CONTROL
 END OF RIV OPTIONS

 PROCESSING RIV DIMENSIONS
    MAXBOUND =     794
 END OF RIV DIMENSIONS

 GHB   -- GHB PACKAGE, VERSION 8, 2/22/2014 INPUT READ FROM UNIT 1008
 # File generated by Flopy version 3.3.5 on 04/28/2022 at 15:58:55.

 PROCESSING GHB OPTIONS
    GHB BOUNDARIES HAVE NAMES IN LAST COLUMN.
    FLOWS WILL BE SAVED TO BUDGET FILE SPECIFIED IN OUTPUT CONTROL
 END OF GHB OPTIONS

 PROCESSING GHB DIMENSIONS
    MAXBOUND =     153
 END OF GHB DIMENSIONS

 RCH   -- RCH PACKAGE, VERSION 8, 2/22/2014 INPUT READ FROM UNIT 1009
 # File generated by Flopy version 3.3.5 on 04/28/2022 at 15:58:55.

 PROCESSING RCH OPTIONS
    RECHARGE INPUT WILL BE READ AS ARRAY(S).
    FLOWS WILL BE SAVED TO BUDGET FILE SPECIFIED IN OUTPUT CONTROL
 END OF RCH OPTIONS

 IC -- INITIAL CONDITIONS PACKAGE, VERSION 8, 3/28/2015 INPUT READ FROM UNIT 1006
 # File generated by Flopy version 3.3.5 on 04/28/2022 at 15:58:55.
 PROCESSING GRIDDATA

     INITIAL HEAD =   15.00000    
 END PROCESSING GRIDDATA
 PROCESSING GRIDDATA

                ICELLTYPE = 0

 OPENED ../com_ext/k.txt
 FILE TYPE:OPEN/CLOSE   UNIT 1017   STATUS:OLD                 
 FORMAT:FORMATTED              ACCESS:SEQUENTIAL          
 ACTION:READ                

 K33 not provided.  Assuming K33 = K.
 K22 not provided.  Assuming K22 = K.
 END PROCESSING GRIDDATA

The observation utility is active for "ML"
 # File generated by Flopy version 3.3.5 on 04/28/2022 at 15:58:56.

Processing observation options:

Text output number of digits of precision set to: 10
The PRINT_INPUT option has been specified.


 OBSERVATIONS READ FROM FILE "ml.obs"
 ----------------------------------------------------------------------------------------------------------------------------------------------------------------------------------------------------------------------------
 NAME                                     TYPE                                       TIME         LOCATION DATA                              OUTPUT FILENAME                                                                 
 ----------------------------------------------------------------------------------------------------------------------------------------------------------------------------------------------------------------------------
 PRG                                      CONTINUOUS  HEAD                           ALL TIMES    "1 16523"                                  sim/hds.csv                                                                     
 P8                                       CONTINUOUS  HEAD                           ALL TIMES    "1 10323"                                  sim/hds.csv                                                                     
 P24                                      CONTINUOUS  HEAD                           ALL TIMES    "1 9594"                                   sim/hds.csv                                                                     
 P25                                      CONTINUOUS  HEAD                           ALL TIMES    "1 13966"                                  sim/hds.csv                                                                     
 P32                                      CONTINUOUS  HEAD                           ALL TIMES    "1 15787"                                  sim/hds.csv                                                                     
 P33                                      CONTINUOUS  HEAD                           ALL TIMES    "1 15825"                                  sim/hds.csv                                                                     
 PF                                       CONTINUOUS  HEAD                           ALL TIMES    "1 21048"                                  sim/hds.csv                                                                     
 PH                                       CONTINUOUS  HEAD                           ALL TIMES    "1 20781"                                  sim/hds.csv                                                                     
 PZHM1                                    CONTINUOUS  HEAD                           ALL TIMES    "1 14521"                                  sim/hds.csv                                                                     
 P26                                      CONTINUOUS  HEAD                           ALL TIMES    "1 13141"                                  sim/hds.csv                                                                     
 P27                                      CONTINUOUS  HEAD                           ALL TIMES    "1 8465"                                   sim/hds.csv                                                                     
 P28                                      CONTINUOUS  HEAD                           ALL TIMES    "1 8924"                                   sim/hds.csv                                                                     
 P29                                      CONTINUOUS  HEAD                           ALL TIMES    "1 4524"                                   sim/hds.csv                                                                     
 P30                                      CONTINUOUS  HEAD                           ALL TIMES    "1 5255"                                   sim/hds.csv                                                                     
 R20                                      CONTINUOUS  HEAD                           ALL TIMES    "1 10676"                                  sim/hds.csv                                                                     
 R21                                      CONTINUOUS  HEAD                           ALL TIMES    "1 10403"                                  sim/hds.csv                                                                     
 P34                                      CONTINUOUS  HEAD                           ALL TIMES    "1 15131"                                  sim/hds.csv                                                                     
 P37                                      CONTINUOUS  HEAD                           ALL TIMES    "1 15755"                                  sim/hds.csv                                                                     
 P38                                      CONTINUOUS  HEAD                           ALL TIMES    "1 15045"                                  sim/hds.csv                                                                     
 P39                                      CONTINUOUS  HEAD                           ALL TIMES    "1 9637"                                   sim/hds.csv                                                                     
 P40                                      CONTINUOUS  HEAD                           ALL TIMES    "1 9312"                                   sim/hds.csv                                                                     
 AP1                                      CONTINUOUS  HEAD                           ALL TIMES    "1 9702"                                   sim/hds.csv                                                                     
 RCK1                                     CONTINUOUS  HEAD                           ALL TIMES    "1 15900"                                  sim/hds.csv                                                                     
 RCK2                                     CONTINUOUS  HEAD                           ALL TIMES    "1 15199"                                  sim/hds.csv                                                                     
 P23                                      CONTINUOUS  HEAD                           ALL TIMES    "1 6409"                                   sim/hds.csv                                                                     
 ----------------------------------------------------------------------------------------------------------------------------------------------------------------------------------------------------------------------------


    BINARY GRID INFORMATION WILL BE WRITTEN TO:
      UNIT NUMBER: 1019
      FILE NAME: /srv/common/ptrack/case_study/pst/ml_04/./ml.disv.grb

 OPENED /srv/common/ptrack/case_study/pst/ml_04/./ml.disv.grb
 FILE TYPE:DATA(BINARY)   UNIT 1019   STATUS:REPLACE             
 FORMAT:UNFORMATTED            ACCESS:STREAM              
 ACTION:READWRITE           

      THE LAST TIME STEP WILL BE PRINTED
      THE LAST TIME STEP WILL BE PRINTED
 # File generated by Flopy version 3.3.5 on 04/28/2022 at 15:58:56.

 PROCESSING OC OPTIONS

    BUDGET INFORMATION WILL BE WRITTEN TO:
      UNIT NUMBER: 1020
      FILE NAME: ml.cbc

 OPENED ml.cbc
 FILE TYPE:DATA(BINARY)   UNIT 1020   STATUS:REPLACE             
 FORMAT:UNFORMATTED            ACCESS:STREAM              
 ACTION:READWRITE           

    HEAD INFORMATION WILL BE WRITTEN TO:
      UNIT NUMBER: 1021
      FILE NAME: ml.hds

 OPENED ml.hds
 FILE TYPE:DATA(BINARY)   UNIT 1021   STATUS:REPLACE             
 FORMAT:UNFORMATTED            ACCESS:STREAM              
 ACTION:READWRITE           

 END OF OC OPTIONS

The observation utility is active for "DRN_0"
 # File generated by Flopy version 3.3.5 on 04/28/2022 at 15:58:56.

Processing observation options:



start timestep kper="1" kstp="1" mode="normal"


 BEGIN READING OUTPUT CONTROL FOR STRESS PERIOD 1
      THE LAST TIME STEP WILL BE SAVED
      THE LAST TIME STEP WILL BE SAVED

 END READING OUTPUT CONTROL FOR STRESS PERIOD 1

 OPENED ext/wel_spd_1.txt
 FILE TYPE:OPEN/CLOSE   UNIT 1023   STATUS:OLD                 
 FORMAT:FORMATTED              ACCESS:SEQUENTIAL          
 ACTION:READ                


 OPENED ext/drn_spd_1.txt
 FILE TYPE:OPEN/CLOSE   UNIT 1024   STATUS:OLD                 
 FORMAT:FORMATTED              ACCESS:SEQUENTIAL          
 ACTION:READ                


 OPENED ext/riv_spd_1.txt
 FILE TYPE:OPEN/CLOSE   UNIT 1025   STATUS:OLD                 
 FORMAT:FORMATTED              ACCESS:SEQUENTIAL          
 ACTION:READ                


 OPENED ../com_ext/ghb_spd_1.txt
 FILE TYPE:OPEN/CLOSE   UNIT 1026   STATUS:OLD                 
 FORMAT:FORMATTED              ACCESS:SEQUENTIAL          
 ACTION:READ                


 OPENED ../com_ext/rech_spd_1.txt
 FILE TYPE:OPEN/CLOSE   UNIT 1027   STATUS:OLD                 
 FORMAT:FORMATTED              ACCESS:SEQUENTIAL          
 ACTION:READ                


 SLN_1 INNER ITERATION SUMMARY
 --------------------------------------------------------------------------------------------------------------------------------------
      TOTAL      OUTER      INNER                                                            MAXIMUM                                   
  ITERATION  ITERATION  ITERATION  MAXIMUM CHANGE      MAXIMUM CHANGE MODEL-(CELLID)        RESIDUAL    MAXIMUM RESIDUAL MODEL-(CELLID)
 --------------------------------------------------------------------------------------------------------------------------------------
          1          1          1      -11.826559                    1_GWF-(1,12785)      0.66549710                    1_GWF-(1,11179)
          2          1          2       7.9532413                    1_GWF-(1,26564)     -0.36587301                    1_GWF-(1,11175)
          3          1          3       8.5895576                    1_GWF-(1,26565)     -0.32966469                    1_GWF-(1,11178)
          4          1          4       8.3341443                    1_GWF-(1,26564)      0.32131109                    1_GWF-(1,11180)
          5          1          5       8.5287915                    1_GWF-(1,26611)      0.29294654                    1_GWF-(1,11157)
          6          1          6       9.1689703                    1_GWF-(1,26649)      0.22640179                    1_GWF-(1,11158)
          7          1          7       9.2435249                    1_GWF-(1,26622)     -0.25546529                    1_GWF-(1,11208)
          8          1          8       7.3921685                    1_GWF-(1,26665)      0.14859501                    1_GWF-(1,10961)
          9          1          9      -5.6477950                    1_GWF-(1,26665)      0.15001827                    1_GWF-(1,11158)
         10          1         10      -5.6495993                    1_GWF-(1,26666)      0.15525631                    1_GWF-(1,11207)
         11          1         11      -5.3390301                    1_GWF-(1,26665)     -0.14533510                    1_GWF-(1,11207)
         12          1         12      -5.1241111                    1_GWF-(1,26622)      0.10913419                    1_GWF-(1,11059)
         13          1         13      -6.0463689                    1_GWF-(1,26649)  9.18897767E-02                    1_GWF-(1,11052)
         14          1         14      -4.9326839                    1_GWF-(1,26622)  8.45759088E-02                    1_GWF-(1,11050)
         15          1         15      -3.9558853                    1_GWF-(1,26623)  8.25424480E-02                    1_GWF-(1,11017)
         16          1         16      -3.0981497                    1_GWF-(1,26622)  8.16421672E-02                    1_GWF-(1,11058)
         17          1         17      -3.6255115                    1_GWF-(1,26588)      0.10963254                    1_GWF-(1,10873)
         18          1         18      -4.7211459                    1_GWF-(1,26543)     -0.10137976                    1_GWF-(1,11152)
         19          1         19      -6.2015149                    1_GWF-(1,26588)  8.49699872E-02                    1_GWF-(1,11194)
         20          1         20      -5.0024338                    1_GWF-(1,26543)  8.78780876E-02                    1_GWF-(1,11151)
         21          1         21      -3.5640634                    1_GWF-(1,26544) -8.25229742E-02                    1_GWF-(1,11152)
         22          1         22      -3.8766666                    1_GWF-(1,26486) -9.01594044E-02                    1_GWF-(1,11151)
         23          1         23      -3.7511431                    1_GWF-(1,26487)  7.68588465E-02                    1_GWF-(1,11151)
         24          1         24       3.5813622                    1_GWF-(1,26487)  6.66285178E-02                    1_GWF-(1,11108)
         25          1         25       4.6848527                    1_GWF-(1,26420) -6.74304033E-02                    1_GWF-(1,11151)
         26          1         26       4.8824039                    1_GWF-(1,26487) -7.93801598E-02                    1_GWF-(1,11108)
         27          1         27       4.0625847                    1_GWF-(1,26420)  6.54352472E-02                    1_GWF-(1,11108)
         28          1         28       2.9286626                    1_GWF-(1,26487) -5.85565420E-02                    1_GWF-(1,11149)
         29          1         29       2.2195064                    1_GWF-(1,26542) -5.66733126E-02                    1_GWF-(1,11150)
         30          1         30       1.8549514                    1_GWF-(1,26623) -5.84791370E-02                    1_GWF-(1,11063)
         31          1         31       1.9939015                    1_GWF-(1,26586)  5.01239459E-02                    1_GWF-(1,11158)
         32          1         32       1.7496048                    1_GWF-(1,26422) -4.79731815E-02                    1_GWF-(1,11053)
         33          1         33      -1.9743073                    1_GWF-(1,26422) -5.15196880E-02                    1_GWF-(1,11155)
         34          1         34      -2.0310994                    1_GWF-(1,26350) -4.54901167E-02                    1_GWF-(1,11154)
         35          1         35      -2.0794392                    1_GWF-(1,26422)  4.89695134E-02                    1_GWF-(1,11154)
         36          1         36      -1.8958789                    1_GWF-(1,26350) -4.95853539E-02                    1_GWF-(1,11153)
         37          1         37      -1.7144094                    1_GWF-(1,26422)  4.86415475E-02                    1_GWF-(1,11064)
         38          1         38      -1.5688575                    1_GWF-(1,26648)  5.63279178E-02                    1_GWF-(1,11063)
         39          1         39      -1.5072371                    1_GWF-(1,26649)  4.32141536E-02                    1_GWF-(1,11150)
         40          1         40      -1.4889867                    1_GWF-(1,26623)  3.30846900E-02                    1_GWF-(1,11110)
         41          1         41      -1.3042647                    1_GWF-(1,26649) -3.45255977E-02                    1_GWF-(1,11150)
         42          1         42      -1.1647579                    1_GWF-(1,26623)  3.86654288E-02                    1_GWF-(1,11150)
         43          1         43     -0.96703295                    1_GWF-(1,21484) -3.99131851E-02                    1_GWF-(1,11151)
         44          1         44     -0.96183121                    1_GWF-(1,21412) -4.18310663E-02                    1_GWF-(1,11108)
         45          1         45      -1.2369957                    1_GWF-(1,21259) -2.99114977E-02                    1_GWF-(1,11061)
         46          1         46      -1.1609496                    1_GWF-(1,20925)  3.32308179E-02                    1_GWF-(1,14801)
         47          1         47      -1.2215794                    1_GWF-(1,20919) -4.32147354E-02                    1_GWF-(1,14801)
         48          1         48     -0.91178472                    1_GWF-(1,20918)  5.48334320E-02                    1_GWF-(1,14801)
         49          1         49     -0.68743050                    1_GWF-(1,26217) -5.83886524E-02                    1_GWF-(1,14801)
         50          1         50     -0.62703318                    1_GWF-(1,26218)  7.80709794E-02                    1_GWF-(1,14801)
         51          2          1      -36.926600                    1_GWF-(1,26519)     -0.16431546                    1_GWF-(1,26519)
         52          2          2      -13.763169                    1_GWF-(1,26607) -6.30245133E-02                    1_GWF-(1,26516)
         53          2          3      -7.1215184                    1_GWF-(1,26637)  4.24059319E-02                    1_GWF-(1,26516)
         54          2          4      -7.0161280                    1_GWF-(1,26665)  4.90203223E-02                    1_GWF-(1,14801)
         55          2          5      -4.5601075                    1_GWF-(1,26649) -4.68920329E-02                    1_GWF-(1,14801)
         56          2          6      -3.4689383                    1_GWF-(1,26589)  6.34151394E-02                    1_GWF-(1,14801)
         57          2          7      -2.9572539                    1_GWF-(1,26543) -7.04384393E-02                    1_GWF-(1,14801)
         58          2          8      -2.5969669                    1_GWF-(1,26544)      0.10981637                    1_GWF-(1,14801)
         59          2          9      -1.8905481                    1_GWF-(1,26487) -9.37658216E-02                    1_GWF-(1,14801)
         60          2         10      -1.5649330                    1_GWF-(1,26421)  8.61884380E-02                    1_GWF-(1,14801)
         61          2         11      -1.4625066                    1_GWF-(1,26422)  1.54375241E-02                    1_GWF-(1,14800)
         62          2         12      -1.1631495                    1_GWF-(1,26217)  3.27817610E-02                    1_GWF-(1,14800)
         63          2         13     -0.89425472                    1_GWF-(1,26218)  6.35459382E-02                    1_GWF-(1,14801)
         64          2         14     -0.56571545                    1_GWF-(1,26649) -6.28297574E-02                    1_GWF-(1,14801)
         65          2         15     -0.61527729                    1_GWF-(1,26622)  5.84179229E-02                    1_GWF-(1,14801)
         66          2         16     -0.79857554                    1_GWF-(1,25775)  1.56342716E-02                    1_GWF-(1,14801)
         67          2         17     -0.87055735                    1_GWF-(1,25758)  6.24477017E-02                    1_GWF-(1,14800)
         68          2         18      0.87243598                    1_GWF-(1,26217)  8.74234428E-02                    1_GWF-(1,14801)
         69          2         19      0.64809202                    1_GWF-(1,26218)  6.46770982E-02                    1_GWF-(1,14800)
         70          2         20      0.46242198                    1_GWF-(1,26543)  5.02112640E-02                    1_GWF-(1,14801)
         71          2         21      0.68864618                    1_GWF-(1,26588)  9.96236049E-03                    1_GWF-(1,14801)
         72          2         22      0.72990094                    1_GWF-(1,26543)  4.51273249E-02                    1_GWF-(1,14800)
         73          2         23      0.44233646                    1_GWF-(1,26544)  7.96373700E-02                    1_GWF-(1,14801)
         74          2         24     -0.48986771                    1_GWF-(1,26422)  7.09918746E-02                    1_GWF-(1,14800)
         75          2         25     -0.67984093                    1_GWF-(1,26486)  6.07301965E-02                    1_GWF-(1,14801)
         76          2         26     -0.73494261                    1_GWF-(1,26487)  1.16084096E-02                    1_GWF-(1,14800)
         77          2         27     -0.49066780                    1_GWF-(1,26420)  3.76385888E-02                    1_GWF-(1,14800)
         78          2         28     -0.26204767                    1_GWF-(1,26543)  6.66582409E-02                    1_GWF-(1,14801)
         79          2         29      0.27831868                    1_GWF-(1,26487)  6.54576953E-02                    1_GWF-(1,14800)
         80          2         30      0.28171057                    1_GWF-(1,26420)  8.75616641E-02                    1_GWF-(1,14801)
         81          2         31      0.23617390                    1_GWF-(1,25268) -7.97443922E-02                    1_GWF-(1,14801)
         82          2         32      0.25832499                    1_GWF-(1,26218)  8.79214213E-02                    1_GWF-(1,14801)
         83          2         33      0.27398091                    1_GWF-(1,26217) -6.03617291E-02                    1_GWF-(1,14801)
         84          2         34     -0.20831471                    1_GWF-(1,26217)  4.80657186E-02                    1_GWF-(1,14801)
         85          2         35      0.18669600                    1_GWF-(1,26422)  3.03899557E-02                    1_GWF-(1,14800)
         86          2         36      0.18553753                    1_GWF-(1,26218)  2.55338329E-02                    1_GWF-(1,14801)
         87          2         37     -0.20428634                    1_GWF-(1,21290)  1.63106864E-02                    1_GWF-(1,14800)
         88          2         38     -0.20729921                    1_GWF-(1,21282)  1.36619474E-02                    1_GWF-(1,14801)
         89          2         39     -0.19338061                    1_GWF-(1,20937)  7.51492277E-03                    1_GWF-(1,14800)
         90          2         40     -0.19029880                    1_GWF-(1,20915)  5.02291674E-03                    1_GWF-(1,14801)
         91          2         41     -0.15363166                    1_GWF-(1,25494)  7.15436654E-03                    1_GWF-(1,14801)
         92          2         42      0.15954034                    1_GWF-(1,21364)  9.17921368E-03                    1_GWF-(1,14800)
         93          2         43     -0.19263525                    1_GWF-(1,26350)  1.24701661E-02                    1_GWF-(1,14801)
         94          2         44      0.20814141                    1_GWF-(1,21283)  1.19940095E-02                    1_GWF-(1,14800)
         95          2         45      0.19879682                    1_GWF-(1,21265)  1.46125856E-02                    1_GWF-(1,14801)
         96          2         46      0.17721872                    1_GWF-(1,20917)  1.12445304E-02                    1_GWF-(1,14800)
         97          2         47      0.13547320                    1_GWF-(1,20232)  1.02782128E-02                    1_GWF-(1,14801)
         98          2         48 -9.31526764E-02                    1_GWF-(1,26422)  6.75824130E-03                    1_GWF-(1,14800)
         99          2         49 -8.66271863E-02                    1_GWF-(1,26586)  6.47287400E-03                    1_GWF-(1,14801)
        100          2         50 -7.20695367E-02                    1_GWF-(1,20584)  4.95900900E-03                    1_GWF-(1,15939)
        101          3          1     -0.13810377                    1_GWF-(1,11442) -6.49155619E-03                    1_GWF-(1,11378)
        102          3          2     -0.13738068                    1_GWF-(1,11437)  5.63425634E-03                    1_GWF-(1,14800)
        103          3          3     -0.10282035                    1_GWF-(1,26079)  7.19466573E-03                    1_GWF-(1,14801)
        104          3          4 -7.54225059E-02                    1_GWF-(1,26085)  5.84612209E-03                    1_GWF-(1,14800)
        105          3          5 -7.99384340E-02                    1_GWF-(1,25572)  7.35583528E-03                    1_GWF-(1,14801)
        106          3          6 -7.34494876E-02                    1_GWF-(1,25582)  6.66232147E-03                    1_GWF-(1,14800)
        107          3          7 -6.68568565E-02                    1_GWF-(1,25580)  6.68685641E-03                    1_GWF-(1,14801)
        108          3          8 -7.15356291E-02                    1_GWF-(1,26422)  5.01372250E-03                    1_GWF-(1,14800)
        109          3          9 -7.62444000E-02                    1_GWF-(1,26350)  5.85545607E-03                    1_GWF-(1,14801)
        110          3         10 -6.66584801E-02                    1_GWF-(1,26422)  4.12925113E-03                    1_GWF-(1,14800)
        111          3         11 -7.06687466E-02                    1_GWF-(1,24873)  3.35886424E-03                    1_GWF-(1,15939)
        112          3         12 -6.34791562E-02                    1_GWF-(1,26422) -2.91181352E-03                    1_GWF-(1,15939)
        113          3         13 -4.85955555E-02                    1_GWF-(1,24904)  1.83675888E-03                    1_GWF-(1,15939)
        114          3         14 -5.05555963E-02                    1_GWF-(1,25416)  1.62825699E-03                    1_GWF-(1,14801)
        115          3         15 -4.86197719E-02                    1_GWF-(1,22570) -2.33064452E-03                    1_GWF-(1,14801)
        116          3         16 -4.48187294E-02                    1_GWF-(1,22559)  3.50669987E-03                    1_GWF-(1,14801)
        117          3         17 -4.57021298E-02                    1_GWF-(1,22537)  4.07571323E-03                    1_GWF-(1,14800)
        118          3         18 -4.18043303E-02                    1_GWF-(1,22524)  6.13509758E-03                    1_GWF-(1,14801)
        119          3         19 -3.80029553E-02                    1_GWF-(1,22311)  6.75601069E-03                    1_GWF-(1,14800)
        120          3         20 -4.17332396E-02                    1_GWF-(1,20921)  9.40374646E-03                    1_GWF-(1,14801)
        121          3         21 -5.09051905E-02                    1_GWF-(1,21263) -9.28825572E-03                    1_GWF-(1,14801)
        122          3         22 -4.86991723E-02                    1_GWF-(1,20229)  1.20678397E-02                    1_GWF-(1,14801)
        123          3         23 -4.63648088E-02                    1_GWF-(1,20222) -1.25948809E-02                    1_GWF-(1,14801)
        124          3         24  5.17927679E-02                    1_GWF-(1,26588)  1.28274171E-02                    1_GWF-(1,14801)
        125          3         25  6.00425302E-02                    1_GWF-(1,26487) -4.85098830E-03                    1_GWF-(1,14801)
        126          3         26  6.02272685E-02                    1_GWF-(1,26420)  3.18825561E-03                    1_GWF-(1,14800)
        127          3         27  4.62843492E-02                    1_GWF-(1,26487)  9.10377653E-03                    1_GWF-(1,14801)
        128          3         28 -3.24872794E-02                    1_GWF-(1,26487) -1.10768743E-02                    1_GWF-(1,14801)
        129          3         29 -3.86804212E-02                    1_GWF-(1,26486)  9.69922578E-03                    1_GWF-(1,14801)
        130          3         30 -4.10458839E-02                    1_GWF-(1,26622)  3.92888898E-03                    1_GWF-(1,14800)
        131          3         31 -4.43433702E-02                    1_GWF-(1,26649)  2.02409614E-03                    1_GWF-(1,14800)
        132          3         32 -4.57754783E-02                    1_GWF-(1,26622)  6.87364626E-03                    1_GWF-(1,14801)
        133          3         33 -3.53350665E-02                    1_GWF-(1,26649) -8.55930168E-03                    1_GWF-(1,14801)
        134          3         34  3.16070048E-02                    1_GWF-(1,26649)  8.63606213E-03                    1_GWF-(1,14801)
        135          3         35 -3.52136992E-02                    1_GWF-(1,26665)  3.67316668E-03                    1_GWF-(1,14800)
        136          3         36  4.67540091E-02                    1_GWF-(1,26665) -9.29088303E-04                    1_GWF-(1,15942)
        137          3         37  4.24395993E-02                    1_GWF-(1,26666)  3.12830683E-03                    1_GWF-(1,14801)
        138          3         38  3.04306662E-02                    1_GWF-(1,26665) -4.52880058E-03                    1_GWF-(1,14801)
        139          3         39 -2.54628090E-02                    1_GWF-(1,26665)  3.98520671E-03                    1_GWF-(1,14801)
        140          3         40  2.18154282E-02                    1_GWF-(1,26421) -3.05002880E-03                    1_GWF-(1,14801)
        141          3         41  2.50605448E-02                    1_GWF-(1,26486) -9.31691334E-04                    1_GWF-(1,15939)
        142          3         42  2.67510857E-02                    1_GWF-(1,26487)  1.44766877E-03                    1_GWF-(1,14801)
        143          3         43  2.72074711E-02                    1_GWF-(1,26486) -2.74269708E-03                    1_GWF-(1,14801)
        144          3         44  2.50897846E-02                    1_GWF-(1,26588) -2.27990525E-03                    1_GWF-(1,14800)
        145          3         45  1.76377165E-02                    1_GWF-(1,26622) -2.05549143E-03                    1_GWF-(1,14801)
        146          3         46  1.58843799E-02                    1_GWF-(1,26649) -1.42217165E-03                    1_GWF-(1,14800)
        147          3         47 -1.25948405E-02                    1_GWF-(1,26141) -1.42169248E-03                    1_GWF-(1,14801)
        148          3         48 -1.14360125E-02                    1_GWF-(1,26543) -8.53768590E-04                    1_GWF-(1,15939)
        149          3         49 -1.48821347E-02                    1_GWF-(1,26649)  5.56921496E-04                    1_GWF-(1,15939)
        150          3         50 -1.17584619E-02                    1_GWF-(1,26623)  4.20507706E-04                    1_GWF-(1,15854)
        151          4          1 -2.02089786E-02                    1_GWF-(1,11936)  3.23545243E-04                    1_GWF-(1,15939)
        152          4          2 -1.05249909E-02                    1_GWF-(1,11939) -4.04061268E-04                    1_GWF-(1,15939)
        153          4          3 -7.41787669E-03                    1_GWF-(1,26217) -5.98721096E-04                    1_GWF-(1,14801)
        154          4          4 -8.27980329E-03                    1_GWF-(1,26218) -5.74730675E-04                    1_GWF-(1,14800)
        155          4          5 -7.21944255E-03                    1_GWF-(1,26217) -7.03339995E-04                    1_GWF-(1,14801)
        156          4          6 -7.36833854E-03                    1_GWF-(1,26218) -7.19378394E-04                    1_GWF-(1,14800)
        157          4          7 -7.29158472E-03                    1_GWF-(1,20584) -8.52386383E-04                    1_GWF-(1,14801)
        158          4          8 -6.00740523E-03                    1_GWF-(1,20577)  5.91850522E-04                    1_GWF-(1,14801)
        159          4          9  6.18698302E-03                    1_GWF-(1,26486)  2.32282112E-04                    1_GWF-(1,14800)
        160          4         10  6.33317656E-03                    1_GWF-(1,26487) -3.03668190E-04                    1_GWF-(1,14801)
        161          4         11  5.36905236E-03                    1_GWF-(1,26486) -5.52727853E-04                    1_GWF-(1,14800)
        162          4         12 -4.48524206E-03                    1_GWF-(1,21335) -7.36574904E-04                    1_GWF-(1,14801)
        163          4         13 -4.77926884E-03                    1_GWF-(1,26674)  7.10031396E-04                    1_GWF-(1,14801)
        164          4         14 -5.53313499E-03                    1_GWF-(1,26666) -5.48262409E-04                    1_GWF-(1,14801)
        165          4         15 -5.75463596E-03                    1_GWF-(1,26665)  6.35544329E-05                    1_GWF-(1,14801)
        166          4         16  5.90279712E-03                    1_GWF-(1,26665)  4.34467275E-04                    1_GWF-(1,14801)
        167          4         17 -3.68303973E-03                    1_GWF-(1,26665) -6.43725670E-04                    1_GWF-(1,14801)
        168          4         18 -3.02426648E-03                    1_GWF-(1,20214)  6.92194686E-04                    1_GWF-(1,14801)
        169          4         19  3.67775637E-03                    1_GWF-(1,26622)  4.84228985E-04                    1_GWF-(1,14800)
        170          4         20  3.46159153E-03                    1_GWF-(1,26649)  2.34099232E-04                    1_GWF-(1,14801)
        171          4         21 -3.87971599E-03                    1_GWF-(1,26649)  2.51669550E-04                    1_GWF-(1,14801)
        172          4         22 -3.46268701E-03                    1_GWF-(1,26622) -5.29422378E-04                    1_GWF-(1,14801)
        173          4         23 -3.28128449E-03                    1_GWF-(1,26486)  7.25869965E-04                    1_GWF-(1,14801)
        174          4         24 -3.59455122E-03                    1_GWF-(1,26487) -5.41762081E-04                    1_GWF-(1,14801)
        175          4         25 -3.68084373E-03                    1_GWF-(1,26588)  2.62303269E-04                    1_GWF-(1,14801)
        176          4         26 -3.05312717E-03                    1_GWF-(1,26487)  1.98781849E-04                    1_GWF-(1,14801)
        177          4         27 -2.23663018E-03                    1_GWF-(1,26588)  3.89820059E-04                    1_GWF-(1,14800)
        178          4         28 -1.82771255E-03                     1_GWF-(1,8049)  5.91647420E-04                    1_GWF-(1,14801)
        179          4         29  1.30310465E-03                    1_GWF-(1,20218) -5.93467713E-04                    1_GWF-(1,14801)
        180          4         30  1.29848390E-03                    1_GWF-(1,26588)  6.34006480E-04                    1_GWF-(1,14801)
        181          4         31  1.49167562E-03                    1_GWF-(1,26422) -4.52090837E-04                    1_GWF-(1,14801)
        182          4         32  1.46572790E-03                    1_GWF-(1,26218)  4.01416233E-04                    1_GWF-(1,14801)
        183          4         33  9.88452223E-04                    1_GWF-(1,26217)  2.47794798E-04                    1_GWF-(1,14800)
        184          4         34 -8.04240419E-04                    1_GWF-(1,23968)  1.87483568E-04                    1_GWF-(1,14801)
        185          4         35 -8.90858044E-04                    1_GWF-(1,21143) -1.33717654E-04                    1_GWF-(1,14801)
        186          4         36  1.21476193E-03                     1_GWF-(1,7967)  8.72336582E-05                    1_GWF-(1,14801)
        187          4         37  1.16361836E-03                     1_GWF-(1,7970)  8.47646836E-05                    1_GWF-(1,15939)
        188          4         38  1.12589507E-03                     1_GWF-(1,8065) -7.58700620E-05                    1_GWF-(1,15939)
        189          4         39  9.68731636E-04                     1_GWF-(1,8068)  7.44240027E-05                    1_GWF-(1,15939)
        190          4         40 -1.11287189E-03                    1_GWF-(1,26422)  7.34478737E-05                    1_GWF-(1,14799)
        191          4         41 -1.08354515E-03                    1_GWF-(1,26350)  5.94113841E-05                    1_GWF-(1,14801)
        192          4         42 -1.10218510E-03                    1_GWF-(1,20578)  6.10434039E-05                    1_GWF-(1,14800)
        193          4         43 -9.81730340E-04                    1_GWF-(1,26350)  7.52602138E-05                    1_GWF-(1,14801)
        194          4         44 -8.11378891E-04                    1_GWF-(1,26422)  6.14412201E-05                    1_GWF-(1,14800)
        195          4         45  7.77842855E-04                    1_GWF-(1,26422)  7.36076501E-05                    1_GWF-(1,14801)
        196          4         46 -6.00490234E-04                    1_GWF-(1,26422)  5.78992122E-05                    1_GWF-(1,14800)
        197          4         47  5.18804274E-04                    1_GWF-(1,25109)  5.81358930E-05                    1_GWF-(1,14801)
        198          4         48  5.71953591E-04                    1_GWF-(1,26079)  4.62644687E-05                    1_GWF-(1,14800)
        199          4         49  5.82544733E-04                    1_GWF-(1,26082)  5.00399471E-05                    1_GWF-(1,14801)
        200          4         50  5.45968679E-04                    1_GWF-(1,26586)  3.28769618E-05                    1_GWF-(1,14798)
        201          5          1 -8.59054718E-03                    1_GWF-(1,11378)  2.69655409E-05                    1_GWF-(1,14801)
        202          5          2 -2.60089117E-03                    1_GWF-(1,11369)  2.45225164E-05                    1_GWF-(1,14800)
        203          5          3 -1.49688133E-03                    1_GWF-(1,11456)  3.62277688E-05                    1_GWF-(1,14801)
        204          5          4  1.10621026E-03                    1_GWF-(1,11381)  4.12692252E-05                    1_GWF-(1,14800)
        205          5          5  1.13555008E-03                    1_GWF-(1,11459)  5.53818612E-05                    1_GWF-(1,14801)
        206          5          6  1.13741775E-03                    1_GWF-(1,11460)  4.42622205E-05                    1_GWF-(1,14800)
        207          5          7  8.14609327E-04                    1_GWF-(1,11416)  5.11609983E-05                    1_GWF-(1,14801)
        208          5          8 -1.00554247E-03                    1_GWF-(1,11454)  4.20140808E-05                    1_GWF-(1,14800)
        209          5          9 -6.47901060E-04                    1_GWF-(1,11453)  3.76780724E-05                    1_GWF-(1,14801)
        210          5         10  6.75926697E-04                    1_GWF-(1,11461)  3.61475355E-05                    1_GWF-(1,14799)
        211          5         11  6.12969466E-04                    1_GWF-(1,26649)  3.32041420E-05                    1_GWF-(1,14800)
        212          5         12 -5.42523070E-04                    1_GWF-(1,11461)  4.39376888E-05                    1_GWF-(1,14801)
        213          5         13 -6.10526273E-04                    1_GWF-(1,11458)  3.06308124E-05                    1_GWF-(1,14800)
        214          5         14 -5.48878106E-04                    1_GWF-(1,11454)  2.55209484E-05                    1_GWF-(1,15939)
        215          5         15  5.78217286E-04                    1_GWF-(1,11456)  2.31643125E-05                    1_GWF-(1,14799)
        216          5         16 -4.62999265E-04                    1_GWF-(1,11456)  1.89913787E-05                    1_GWF-(1,14798)
        217          5         17 -6.50057776E-04                    1_GWF-(1,11459)  2.88571939E-05                    1_GWF-(1,14799)
        218          5         18  4.28041866E-04                    1_GWF-(1,11466)  1.62764402E-05                    1_GWF-(1,14798)
        219          5         19  4.50649934E-04                    1_GWF-(1,26487)  2.21400087E-05                    1_GWF-(1,14801)
        220          5         20 -4.91711956E-04                    1_GWF-(1,26487)  1.71968893E-05                    1_GWF-(1,14799)
        221          5         21 -3.88449453E-04                    1_GWF-(1,11460)  2.32716675E-05                    1_GWF-(1,14798)
        222          5         22 -3.57727653E-04                    1_GWF-(1,11458)  3.96361006E-05                    1_GWF-(1,14799)
        223          5         23  4.53660293E-04                    1_GWF-(1,11458)  2.53931464E-05                    1_GWF-(1,14798)
        224          5         24  3.31530087E-04                     1_GWF-(1,8218) -3.20623147E-05                    1_GWF-(1,14800)
        225          5         25  3.24938598E-04                    1_GWF-(1,21296) -5.40155922E-05                    1_GWF-(1,14801)
        226          5         26  3.90162569E-04                    1_GWF-(1,20578)  6.22164588E-05                    1_GWF-(1,14801)
        227          5         27  4.45993265E-04                    1_GWF-(1,20572)  5.26001859E-05                    1_GWF-(1,14800)
        228          5         28  3.11189852E-04                    1_GWF-(1,20572)  4.59422432E-05                    1_GWF-(1,14801)
        229          5         29  3.51839108E-04                    1_GWF-(1,26588) -2.38094257E-05                    1_GWF-(1,14801)
        230          5         30 -3.55360100E-04                    1_GWF-(1,26588) -2.48125676E-05                    1_GWF-(1,14801)
        231          5         31 -2.18306561E-04                    1_GWF-(1,26665)  4.90097798E-05                    1_GWF-(1,14801)
        232          5         32 -1.90671594E-04                    1_GWF-(1,20917) -5.80314434E-05                    1_GWF-(1,14801)
        233          5         33 -1.57145354E-04                    1_GWF-(1,21272)  6.94359259E-05                    1_GWF-(1,14801)
        234          5         34 -1.35817934E-04                    1_GWF-(1,15164) -8.76731623E-05                    1_GWF-(1,14801)
        235          5         35 -1.06914873E-04                     1_GWF-(1,8437)  9.42935820E-05                    1_GWF-(1,14801)
        236          5         36  9.90111983E-05                    1_GWF-(1,11455) -7.68181438E-05                    1_GWF-(1,14801)
        237          5         37  1.17233533E-04                     1_GWF-(1,8187)  5.52171667E-05                    1_GWF-(1,14801)
        238          5         38  1.28289849E-04                     1_GWF-(1,8190) -4.18190781E-05                    1_GWF-(1,14801)
        239          5         39  1.07024717E-04                     1_GWF-(1,8092)  2.76104046E-05                    1_GWF-(1,14801)
        240          5         40 -1.46711715E-04                    1_GWF-(1,26665) -1.21833696E-05                    1_GWF-(1,14801)
        241          5         41 -1.38278839E-04                    1_GWF-(1,26666) -9.50404147E-06                    1_GWF-(1,14799)
        242          5         42 -1.59537724E-04                    1_GWF-(1,26665)  1.92611942E-05                    1_GWF-(1,14801)
        243          5         43 -1.29971889E-04                    1_GWF-(1,26666) -2.19987567E-05                    1_GWF-(1,14801)
        244          5         44 -1.03551112E-04                    1_GWF-(1,26665) -1.88544986E-05                    1_GWF-(1,14800)
        245          5         45  7.99752138E-05                    1_GWF-(1,26665) -1.64587592E-05                    1_GWF-(1,14801)
        246          5         46  7.22642374E-05                    1_GWF-(1,11466) -1.12012790E-05                    1_GWF-(1,14799)
        247          5         47 -6.92784502E-05                     1_GWF-(1,8447)  1.04375219E-05                    1_GWF-(1,14799)
        248          5         48 -6.43626658E-05                    1_GWF-(1,20581) -1.41488538E-05                    1_GWF-(1,14799)
        249          5         49 -8.38386422E-05                    1_GWF-(1,20575)  1.09411704E-05                    1_GWF-(1,14799)
        250          5         50 -8.05013882E-05                    1_GWF-(1,20225) -1.34230547E-05                    1_GWF-(1,14799)
        251          6          1 -4.63902796E-05                    1_GWF-(1,26217)  1.44314562E-05                    1_GWF-(1,14799)
        252          6          2 -5.70590022E-05                    1_GWF-(1,21323) -1.65827903E-05                    1_GWF-(1,14799)
        253          6          3 -6.63256742E-05                    1_GWF-(1,20979)  1.39292946E-05                    1_GWF-(1,14799)
        254          6          4 -6.21110791E-05                    1_GWF-(1,21360) -1.34531829E-05                    1_GWF-(1,14799)
        255          6          5 -6.64984082E-05                    1_GWF-(1,20909) -9.11669251E-06                    1_GWF-(1,14798)
        256          6          6 -6.83677080E-05                    1_GWF-(1,20234) -5.99681154E-06                    1_GWF-(1,14800)
        257          6          7  6.76187451E-05                    1_GWF-(1,26649) -2.75571265E-06                    1_GWF-(1,14801)
        258          6          8  6.72745026E-05                    1_GWF-(1,26622)  7.22363411E-06                    1_GWF-(1,14799)
        259          6          9  5.05853224E-05                    1_GWF-(1,26623) -1.00843489E-05                    1_GWF-(1,14799)
        260          6         10 -4.82450308E-05                    1_GWF-(1,20948) -9.14070984E-06                    1_GWF-(1,14801)
        261          6         11 -4.08730336E-05                    1_GWF-(1,21329)  7.89376728E-06                    1_GWF-(1,14801)
        262          6         12  4.33733150E-05                    1_GWF-(1,26665)  5.67329110E-06                    1_GWF-(1,14800)
        263          6         13 -5.34794044E-05                    1_GWF-(1,26665) -2.78184593E-06                    1_GWF-(1,14798)
        264          6         14 -4.78627599E-05                    1_GWF-(1,26666) -5.01063376E-06                    1_GWF-(1,14799)
        265          6         15 -4.25146271E-05                    1_GWF-(1,26665)  6.78206707E-06                    1_GWF-(1,14799)
        266          6         16 -3.77028814E-05                    1_GWF-(1,21269)  9.17550779E-06                    1_GWF-(1,14801)
        267          6         17 -3.68948013E-05                    1_GWF-(1,20213) -7.95988971E-06                    1_GWF-(1,14801)
        268          6         18 -4.07036055E-05                    1_GWF-(1,26487) -3.39265636E-06                    1_GWF-(1,14800)
        269          6         19  3.93154184E-05                    1_GWF-(1,26622)  3.28478888E-06                    1_GWF-(1,14798)
        270          6         20  3.07078721E-05                    1_GWF-(1,26649)  5.60087278E-06                    1_GWF-(1,14800)
        271          6         21 -2.69890417E-05                    1_GWF-(1,20550) -7.44684697E-06                    1_GWF-(1,14800)
        272          6         22 -2.70626866E-05                    1_GWF-(1,20636) -1.01811416E-05                    1_GWF-(1,14801)
        273          6         23 -2.37726227E-05                    1_GWF-(1,24655)  1.15532865E-05                    1_GWF-(1,14801)
        274          6         24 -3.13300843E-05                    1_GWF-(1,20574) -9.46667529E-06                    1_GWF-(1,14801)
        275          6         25 -2.98647985E-05                    1_GWF-(1,20572)  8.64309982E-06                    1_GWF-(1,14801)
        276          6         26 -2.20290311E-05                    1_GWF-(1,21365) -7.10809966E-06                    1_GWF-(1,14801)
        277          6         27 -2.26942093E-05                     1_GWF-(1,8219)  5.30597007E-06                    1_GWF-(1,14801)
        278          6         28 -1.83569093E-05                     1_GWF-(1,8047) -3.48269671E-06                    1_GWF-(1,14801)
        279          6         29 -1.26980293E-05                    1_GWF-(1,23611)  3.49868691E-06                    1_GWF-(1,14801)
        280          6         30  1.40086507E-05                    1_GWF-(1,11458)  1.81355640E-06                    1_GWF-(1,14800)
        281          6         31  1.51219803E-05                     1_GWF-(1,8047)  2.04506981E-06                    1_GWF-(1,14799)
        282          6         32  1.50914458E-05                     1_GWF-(1,8048) -1.28369978E-06                    1_GWF-(1,14799)
        283          6         33 -1.19347938E-05                    1_GWF-(1,26588)  1.42424940E-06                    1_GWF-(1,14799)
        284          6         34  1.52154624E-05                    1_GWF-(1,26588)  5.17334593E-07                    1_GWF-(1,14798)
        285          6         35 -1.68906212E-05                    1_GWF-(1,26588) -5.60789006E-07                    1_GWF-(1,14801)
        286          6         36  1.39351871E-05                     1_GWF-(1,7950)  9.82098084E-07                    1_GWF-(1,14799)
        287          6         37  1.56051809E-05                     1_GWF-(1,8082)  1.17473887E-06                    1_GWF-(1,14798)
        288          6         38  1.39913292E-05                     1_GWF-(1,8056)  1.72217744E-06                    1_GWF-(1,14799)
        289          6         39  9.88972860E-06                     1_GWF-(1,8077)  1.23397297E-06                    1_GWF-(1,14798)
        290          6         40 -8.16192780E-06                    1_GWF-(1,11458)  1.67076123E-06                    1_GWF-(1,14799)
        291          6         41  1.08505690E-05                    1_GWF-(1,26486)  7.97778923E-07                    1_GWF-(1,14798)
        292          6         42 -1.07141302E-05                    1_GWF-(1,26486)  5.81059368E-07                    1_GWF-(1,14800)
        293          6         43  1.10924791E-05                    1_GWF-(1,26486)  5.51198776E-07                    1_GWF-(1,14799)
        294          6         44  7.57368114E-06                    1_GWF-(1,26487)  6.87921678E-07                    1_GWF-(1,14798)
        295          6         45 -1.00967595E-05                    1_GWF-(1,11417)  6.35139194E-07                    1_GWF-(1,14799)
        296          6         46 -1.10061671E-05                    1_GWF-(1,11459)  6.87563205E-07                    1_GWF-(1,14801)
        297          6         47 -8.42107179E-06                    1_GWF-(1,11454)  5.02207286E-07                    1_GWF-(1,14800)
        298          6         48  1.09632731E-05                    1_GWF-(1,11453)  5.50724579E-07                    1_GWF-(1,14801)
        299          6         49  1.38051701E-05                    1_GWF-(1,11454)  5.20048533E-07                    1_GWF-(1,14800)
        300          6         50  1.90840770E-05                    1_GWF-(1,11369)  1.07546307E-06                    1_GWF-(1,14799)
        301          7          1 -1.98830272E-05                    1_GWF-(1,11369) -5.55278510E-07                    1_GWF-(1,14799)
        302          7          2 -1.24693618E-05                    1_GWF-(1,11378)  3.96387825E-07                    1_GWF-(1,14799)
        303          7          3 -8.49563598E-06                    1_GWF-(1,11453)  4.46623027E-07                    1_GWF-(1,14799)
        304          7          4  8.97939966E-06                    1_GWF-(1,11378)  5.62767156E-07                    1_GWF-(1,14798)
        305          7          5  8.71290807E-06                    1_GWF-(1,11453)  7.76825909E-07                    1_GWF-(1,14799)
        306          7          6  8.51952956E-06                    1_GWF-(1,11460)  6.09621480E-07                    1_GWF-(1,14798)
        307          7          7 -6.59913919E-06                    1_GWF-(1,11457)  7.51294953E-07                    1_GWF-(1,14799)
        308          7          8 -7.80857486E-06                    1_GWF-(1,11378)  4.71425868E-07                    1_GWF-(1,14800)
        309          7          9  7.11525470E-06                    1_GWF-(1,20584)  4.37225146E-07                    1_GWF-(1,14801)
        310          7         10 -7.35740522E-06                    1_GWF-(1,26486)  6.86068924E-07                    1_GWF-(1,14799)
        311          7         11  6.57456917E-06                    1_GWF-(1,26486)  5.03841140E-07                    1_GWF-(1,14798)
        312          7         12 -6.04551692E-06                    1_GWF-(1,26420)  4.41451148E-07                    1_GWF-(1,14801)
        313          7         13 -5.61570089E-06                    1_GWF-(1,26422)  3.78928882E-07                    1_GWF-(1,14799)
        314          7         14 -5.04831669E-06                     1_GWF-(1,8083)  4.38716803E-07                    1_GWF-(1,14798)
        315          7         15 -5.26123545E-06                     1_GWF-(1,7950)  5.79710953E-07                    1_GWF-(1,14799)
        316          7         16 -5.59622734E-06                     1_GWF-(1,7950) -6.62215359E-07                    1_GWF-(1,14799)
        317          7         17 -4.36970798E-06                    1_GWF-(1,11459)  9.11500583E-07                    1_GWF-(1,14799)
        318          7         18  3.42812166E-06                    1_GWF-(1,26665) -6.51323250E-07                    1_GWF-(1,14799)
        319          7         19 -4.18507962E-06                    1_GWF-(1,26665)  5.65908086E-07                    1_GWF-(1,14799)
        320          7         20 -4.11928174E-06                    1_GWF-(1,26666)  2.62613543E-07                    1_GWF-(1,14800)
        321          7         21 -4.11740290E-06                    1_GWF-(1,26665)  3.88131755E-07                    1_GWF-(1,14798)
        322          7         22 -2.81484787E-06                    1_GWF-(1,26421)  7.41989752E-07                    1_GWF-(1,14799)
        323          7         23  3.39175997E-06                    1_GWF-(1,11378) -6.97512508E-07                    1_GWF-(1,14799)
        324          7         24  4.24000314E-06                     1_GWF-(1,8047)  7.33538236E-07                    1_GWF-(1,14799)
        325          7         25  3.53749361E-06                    1_GWF-(1,21273) -6.70529835E-07                    1_GWF-(1,14799)
        326          7         26  4.23206611E-06                    1_GWF-(1,26588)  3.01921708E-07                    1_GWF-(1,14801)
        327          7         27  4.09011750E-06                    1_GWF-(1,20572)  4.37492274E-07                    1_GWF-(1,14799)
        328          7         28  3.23360605E-06                    1_GWF-(1,26486) -5.87495678E-07                    1_GWF-(1,14799)
        329          7         29  2.39672799E-06                    1_GWF-(1,26487)  5.27454422E-07                    1_GWF-(1,14799)
        330          7         30 -2.51564191E-06                     1_GWF-(1,8035) -5.89971457E-07                    1_GWF-(1,14799)
        331          7         31 -2.47284726E-06                    1_GWF-(1,26486)  4.57064790E-07                    1_GWF-(1,14799)
        332          7         32 -2.40546281E-06                    1_GWF-(1,26487)  2.49776095E-07                    1_GWF-(1,14800)
        333          7         33 -2.46975021E-06                    1_GWF-(1,26649) -1.62183038E-07                    1_GWF-(1,14799)
        334          7         34  2.45906746E-06                    1_GWF-(1,26649)  3.32113143E-07                    1_GWF-(1,14799)
        335          7         35  1.50923573E-06                    1_GWF-(1,26622) -3.99813258E-07                    1_GWF-(1,14799)
        336          7         36 -1.31917449E-06                    1_GWF-(1,11453)  4.02632325E-07                    1_GWF-(1,14801)
        337          7         37  1.19668565E-06                     1_GWF-(1,8038) -5.08630482E-07                    1_GWF-(1,14801)
        338          7         38  1.23515478E-06                     1_GWF-(1,8187)  5.54671034E-07                    1_GWF-(1,14801)
        339          7         39  1.16705872E-06                    1_GWF-(1,20885) -5.59164266E-07                    1_GWF-(1,14801)
        340          7         40  1.06245613E-06                     1_GWF-(1,8088)  5.72076807E-07                    1_GWF-(1,14801)
        341          7         41  8.86557843E-07                    1_GWF-(1,20946) -6.12017327E-07                    1_GWF-(1,14801)
        342          8          1 -8.44058099E-07                    1_GWF-(1,11458)  5.43951127E-07                    1_GWF-(1,14801)
 --------------------------------------------------------------------------------------------------------------------------------------


 UBDSV1 SAVING     FLOW-JA-FACE ON UNIT   1020 AT TIME STEP      1, STRESS PERIOD      1
 UBDSV06 SAVING       DATA-SPDIS IN MODEL ML               PACKAGE NPF             CONNECTED TO MODEL ML               PACKAGE NPF              ON UNIT   1020 AT TIME STEP      1, STRESS PERIOD      1
 UBDSV06 SAVING              WEL IN MODEL ML               PACKAGE ML              CONNECTED TO MODEL ML               PACKAGE WEL_0            ON UNIT   1020 AT TIME STEP      1, STRESS PERIOD      1
 UBDSV06 SAVING              DRN IN MODEL ML               PACKAGE ML              CONNECTED TO MODEL ML               PACKAGE DRN_0            ON UNIT   1020 AT TIME STEP      1, STRESS PERIOD      1
 UBDSV06 SAVING              RIV IN MODEL ML               PACKAGE ML              CONNECTED TO MODEL ML               PACKAGE RIV_0            ON UNIT   1020 AT TIME STEP      1, STRESS PERIOD      1
 UBDSV06 SAVING              GHB IN MODEL ML               PACKAGE ML              CONNECTED TO MODEL ML               PACKAGE GHB_0            ON UNIT   1020 AT TIME STEP      1, STRESS PERIOD      1
 UBDSV06 SAVING              RCH IN MODEL ML               PACKAGE ML              CONNECTED TO MODEL ML               PACKAGE RCHA_0           ON UNIT   1020 AT TIME STEP      1, STRESS PERIOD      1

 HEAD WILL BE SAVED ON UNIT 1021 AT END OF TIME STEP    1, STRESS PERIOD    1


  VOLUME BUDGET FOR ENTIRE MODEL AT END OF TIME STEP    1, STRESS PERIOD   1
  ---------------------------------------------------------------------------------------------------

     CUMULATIVE VOLUME      L**3       RATES FOR THIS TIME STEP      L**3/T          PACKAGE NAME    
     ------------------                 ------------------------                     ----------------

           IN:                                      IN:
           ---                                      ---
                 WEL =           0.0000                   WEL =           0.0000     WEL_0           
                 DRN =           0.0000                   DRN =           0.0000     DRN_0           
                 RIV =           3.9811                   RIV =           0.9953     RIV_0           
                 GHB =           7.6148                   GHB =           1.9037     GHB_0           
                 RCH =           0.6353                   RCH =           0.1588     RCHA_0          

            TOTAL IN =          12.2312              TOTAL IN =           3.0578

          OUT:                                     OUT:
          ----                                     ----
                 WEL =           0.8792                   WEL =           0.2198     WEL_0           
                 DRN =           0.7805                   DRN =           0.1951     DRN_0           
                 RIV =          10.5570                   RIV =           2.6393     RIV_0           
                 GHB =       1.4480E-02                   GHB =       3.6200E-03     GHB_0           
                 RCH =           0.0000                   RCH =           0.0000     RCHA_0          

           TOTAL OUT =          12.2312             TOTAL OUT =           3.0578

            IN - OUT =      -9.2094E-06              IN - OUT =      -2.3023E-06

 PERCENT DISCREPANCY =          -0.00     PERCENT DISCREPANCY =          -0.00




         TIME SUMMARY AT END OF TIME STEP    1 IN STRESS PERIOD    1
                    SECONDS     MINUTES      HOURS       DAYS        YEARS
                    -----------------------------------------------------------
   TIME STEP LENGTH  4.0000     6.66667E-02 1.11111E-03 4.62963E-05 1.26752E-07
 STRESS PERIOD TIME  4.0000     6.66667E-02 1.11111E-03 4.62963E-05 1.26752E-07
         TOTAL TIME  4.0000     6.66667E-02 1.11111E-03 4.62963E-05 1.26752E-07


end timestep

