                                   MODFLOW 6
                U.S. GEOLOGICAL SURVEY MODULAR HYDROLOGIC MODEL
                          GROUNDWATER FLOW MODEL (GWF)
                            VERSION 6.2.2 07/30/2021

   MODFLOW 6 compiled Jul 31 2021 14:22:53 with IFORT compiler (ver. 19.10.3)

This software has been approved for release by the U.S. Geological 
Survey (USGS). Although the software has been subjected to rigorous 
review, the USGS reserves the right to update the software as needed 
pursuant to further analysis and review. No warranty, expressed or 
implied, is made by the USGS or the U.S. Government as to the 
functionality of the software and related material nor shall the 
fact of release constitute any such warranty. Furthermore, the 
software is released on condition that neither the USGS nor the U.S. 
Government shall be held liable for any damages resulting from its 
authorized or unauthorized use. Also refer to the USGS Water 
Resources Software User Rights Notice for complete use, copyright, 
and distribution information.


System command used to initiate simulation:
mf6

MODFLOW was compiled using uniform precision.

Real Variables
  KIND: 8
  TINY (smallest non-zero value):    2.225074-308
  HUGE (largest value):    1.797693+308
  PRECISION: 15
  BIT SIZE: 64

Integer Variables
  KIND: 4
  HUGE (largest value): 2147483647
  BIT SIZE: 32

Long Integer Variables
  KIND: 8
  HUGE (largest value): 9223372036854775807
  BIT SIZE: 64

Logical Variables
  KIND: 4
  BIT SIZE: 32
 

 OPENED ./ml.disv
 FILE TYPE:DISV6                  UNIT 1005   STATUS:OLD                 
 FORMAT:FORMATTED              ACCESS:SEQUENTIAL          
 ACTION:READ                


 OPENED ./ml.ic
 FILE TYPE:IC6                    UNIT 1006   STATUS:OLD                 
 FORMAT:FORMATTED              ACCESS:SEQUENTIAL          
 ACTION:READ                


 OPENED ./ml.npf
 FILE TYPE:NPF6                   UNIT 1007   STATUS:OLD                 
 FORMAT:FORMATTED              ACCESS:SEQUENTIAL          
 ACTION:READ                


 OPENED ./ml.ghb
 FILE TYPE:GHB6                   UNIT 1008   STATUS:OLD                 
 FORMAT:FORMATTED              ACCESS:SEQUENTIAL          
 ACTION:READ                


 OPENED ./ml.rcha
 FILE TYPE:RCH6                   UNIT 1009   STATUS:OLD                 
 FORMAT:FORMATTED              ACCESS:SEQUENTIAL          
 ACTION:READ                


 OPENED ./ml.obs
 FILE TYPE:OBS6                   UNIT 1010   STATUS:OLD                 
 FORMAT:FORMATTED              ACCESS:SEQUENTIAL          
 ACTION:READ                


 OPENED ./ml.oc
 FILE TYPE:OC6                    UNIT 1011   STATUS:OLD                 
 FORMAT:FORMATTED              ACCESS:SEQUENTIAL          
 ACTION:READ                


 OPENED ml.wel
 FILE TYPE:WEL6                   UNIT 1012   STATUS:OLD                 
 FORMAT:FORMATTED              ACCESS:SEQUENTIAL          
 ACTION:READ                


 OPENED ml.drn
 FILE TYPE:DRN6                   UNIT 1013   STATUS:OLD                 
 FORMAT:FORMATTED              ACCESS:SEQUENTIAL          
 ACTION:READ                


 OPENED ml.riv
 FILE TYPE:RIV6                   UNIT 1014   STATUS:OLD                 
 FORMAT:FORMATTED              ACCESS:SEQUENTIAL          
 ACTION:READ                


 DISV -- VERTEX GRID DISCRETIZATION PACKAGE, VERSION 1 : 12/23/2015 - INPUT READ FROM UNIT 1005


 # File generated by Flopy version 3.3.5 on 05/30/2022 at 17:40:28.

 PROCESSING DISCRETIZATION OPTIONS
    MODEL LENGTH UNIT IS METERS
    XORIGIN SPECIFIED AS     405575.681000000    
    YORIGIN SPECIFIED AS     6423306.54000000    
 END OF DISCRETIZATION OPTIONS

 PROCESSING DISCRETIZATION DIMENSIONS
   NLAY = 1
   NCPL = 26674
   NVERT = 27090
 END OF DISCRETIZATION DIMENSIONS

 PROCESSING GRIDDATA
 END PROCESSING GRIDDATA

 PROCESSING VERTICES
   SUCCESSFULLY READ 27090 (X,Y) COORDINATES
   MINIMUM X COORDINATE =     405575.681000000    
   MAXIMUM X COORDINATE =     413975.681000000    
   MINIMUM Y COORDINATE =     6423306.54000000    
   MAXIMUM Y COORDINATE =     6432506.54000000    
 END PROCESSING VERTICES

 PROCESSING CELL2D
   SUCCESSFULLY READ 26674 CELL2D INFORMATION ENTRIES
   MINIMUM X CELL CENTER =     405675.681000000    
   MAXIMUM X CELL CENTER =     413875.681000000    
   MINIMUM Y CELL CENTER =     6423406.54000000    
   MAXIMUM Y CELL CENTER =     6432406.54000000    
   MAXIMUM NUMBER OF CELL2D VERTICES IS 6 FOR CELL 208
 END PROCESSING VERTICES

 NPF -- NODE PROPERTY FLOW PACKAGE, VERSION 1, 3/30/2015 INPUT READ FROM UNIT 1007


 # File generated by Flopy version 3.3.5 on 05/30/2022 at 17:40:31.
 PROCESSING NPF OPTIONS
    CELL-BY-CELL FLOW INFORMATION WILL BE SAVED TO BINARY FILE WHENEVER ICBCFL IS NOT ZERO.
    SPECIFIC DISCHARGE WILL BE CALCULATED AT CELL CENTERS AND WRITTEN TO DATA-SPDIS IN BUDGET FILE WHEN REQUESTED.
 END OF NPF OPTIONS

 WEL   -- WEL PACKAGE, VERSION 8, 2/22/2014 INPUT READ FROM UNIT 1012
 # File generated by Flopy version 3.3.5 on 05/30/2022 at 17:40:31.

 PROCESSING WEL OPTIONS
    WEL BOUNDARIES HAVE NAMES IN LAST COLUMN.
    FLOWS WILL BE SAVED TO BUDGET FILE SPECIFIED IN OUTPUT CONTROL
 END OF WEL OPTIONS

 PROCESSING WEL DIMENSIONS
    MAXBOUND =       9
 END OF WEL DIMENSIONS

 DRN   -- DRN PACKAGE, VERSION 8, 2/22/2014 INPUT READ FROM UNIT 1013
 # File generated by Flopy version 3.3.5 on 05/30/2022 at 17:40:31.

 PROCESSING DRN OPTIONS
    DRN BOUNDARIES HAVE NAMES IN LAST COLUMN.
    FLOWS WILL BE SAVED TO BUDGET FILE SPECIFIED IN OUTPUT CONTROL

 OPENED ml.drn.obs
 FILE TYPE:OBS   UNIT 1016   STATUS:OLD                 
 FORMAT:FORMATTED              ACCESS:SEQUENTIAL          
 ACTION:READ                

 END OF DRN OPTIONS

 PROCESSING DRN DIMENSIONS
    MAXBOUND =     133
 END OF DRN DIMENSIONS

 RIV   -- RIV PACKAGE, VERSION 8, 2/22/2014 INPUT READ FROM UNIT 1014
 # File generated by Flopy version 3.3.5 on 05/30/2022 at 17:40:31.

 PROCESSING RIV OPTIONS
    AUXILIARY RIV VARIABLE: FID             
    RIV BOUNDARIES HAVE NAMES IN LAST COLUMN.
    FLOWS WILL BE SAVED TO BUDGET FILE SPECIFIED IN OUTPUT CONTROL
 END OF RIV OPTIONS

 PROCESSING RIV DIMENSIONS
    MAXBOUND =     794
 END OF RIV DIMENSIONS

 GHB   -- GHB PACKAGE, VERSION 8, 2/22/2014 INPUT READ FROM UNIT 1008
 # File generated by Flopy version 3.3.5 on 05/30/2022 at 17:40:31.

 PROCESSING GHB OPTIONS
    GHB BOUNDARIES HAVE NAMES IN LAST COLUMN.
    FLOWS WILL BE SAVED TO BUDGET FILE SPECIFIED IN OUTPUT CONTROL
 END OF GHB OPTIONS

 PROCESSING GHB DIMENSIONS
    MAXBOUND =     153
 END OF GHB DIMENSIONS

 RCH   -- RCH PACKAGE, VERSION 8, 2/22/2014 INPUT READ FROM UNIT 1009
 # File generated by Flopy version 3.3.5 on 05/30/2022 at 17:40:31.

 PROCESSING RCH OPTIONS
    RECHARGE INPUT WILL BE READ AS ARRAY(S).
    FLOWS WILL BE SAVED TO BUDGET FILE SPECIFIED IN OUTPUT CONTROL
 END OF RCH OPTIONS

 IC -- INITIAL CONDITIONS PACKAGE, VERSION 8, 3/28/2015 INPUT READ FROM UNIT 1006
 # File generated by Flopy version 3.3.5 on 05/30/2022 at 17:40:31.
 PROCESSING GRIDDATA

     INITIAL HEAD =   15.00000    
 END PROCESSING GRIDDATA
 PROCESSING GRIDDATA

                ICELLTYPE = 0

 OPENED ../com_ext/k.txt
 FILE TYPE:OPEN/CLOSE   UNIT 1017   STATUS:OLD                 
 FORMAT:FORMATTED              ACCESS:SEQUENTIAL          
 ACTION:READ                

 K33 not provided.  Assuming K33 = K.
 K22 not provided.  Assuming K22 = K.
 END PROCESSING GRIDDATA

The observation utility is active for "ML"
 # File generated by Flopy version 3.3.5 on 05/30/2022 at 17:40:31.

Processing observation options:

Text output number of digits of precision set to: 10
The PRINT_INPUT option has been specified.


 OBSERVATIONS READ FROM FILE "ml.obs"
 ----------------------------------------------------------------------------------------------------------------------------------------------------------------------------------------------------------------------------
 NAME                                     TYPE                                       TIME         LOCATION DATA                              OUTPUT FILENAME                                                                 
 ----------------------------------------------------------------------------------------------------------------------------------------------------------------------------------------------------------------------------
 PRG                                      CONTINUOUS  HEAD                           ALL TIMES    "1 16523"                                  sim/hds.csv                                                                     
 P8                                       CONTINUOUS  HEAD                           ALL TIMES    "1 10323"                                  sim/hds.csv                                                                     
 P24                                      CONTINUOUS  HEAD                           ALL TIMES    "1 9594"                                   sim/hds.csv                                                                     
 P25                                      CONTINUOUS  HEAD                           ALL TIMES    "1 13966"                                  sim/hds.csv                                                                     
 P32                                      CONTINUOUS  HEAD                           ALL TIMES    "1 15787"                                  sim/hds.csv                                                                     
 P33                                      CONTINUOUS  HEAD                           ALL TIMES    "1 15825"                                  sim/hds.csv                                                                     
 PF                                       CONTINUOUS  HEAD                           ALL TIMES    "1 21048"                                  sim/hds.csv                                                                     
 PH                                       CONTINUOUS  HEAD                           ALL TIMES    "1 20781"                                  sim/hds.csv                                                                     
 PZHM1                                    CONTINUOUS  HEAD                           ALL TIMES    "1 14521"                                  sim/hds.csv                                                                     
 P26                                      CONTINUOUS  HEAD                           ALL TIMES    "1 13141"                                  sim/hds.csv                                                                     
 P27                                      CONTINUOUS  HEAD                           ALL TIMES    "1 8465"                                   sim/hds.csv                                                                     
 P28                                      CONTINUOUS  HEAD                           ALL TIMES    "1 8924"                                   sim/hds.csv                                                                     
 P29                                      CONTINUOUS  HEAD                           ALL TIMES    "1 4524"                                   sim/hds.csv                                                                     
 P30                                      CONTINUOUS  HEAD                           ALL TIMES    "1 5255"                                   sim/hds.csv                                                                     
 R20                                      CONTINUOUS  HEAD                           ALL TIMES    "1 10676"                                  sim/hds.csv                                                                     
 R21                                      CONTINUOUS  HEAD                           ALL TIMES    "1 10403"                                  sim/hds.csv                                                                     
 P34                                      CONTINUOUS  HEAD                           ALL TIMES    "1 15131"                                  sim/hds.csv                                                                     
 P37                                      CONTINUOUS  HEAD                           ALL TIMES    "1 15755"                                  sim/hds.csv                                                                     
 P38                                      CONTINUOUS  HEAD                           ALL TIMES    "1 15045"                                  sim/hds.csv                                                                     
 P39                                      CONTINUOUS  HEAD                           ALL TIMES    "1 9637"                                   sim/hds.csv                                                                     
 P40                                      CONTINUOUS  HEAD                           ALL TIMES    "1 9312"                                   sim/hds.csv                                                                     
 AP1                                      CONTINUOUS  HEAD                           ALL TIMES    "1 9702"                                   sim/hds.csv                                                                     
 RCK1                                     CONTINUOUS  HEAD                           ALL TIMES    "1 15900"                                  sim/hds.csv                                                                     
 RCK2                                     CONTINUOUS  HEAD                           ALL TIMES    "1 15199"                                  sim/hds.csv                                                                     
 P23                                      CONTINUOUS  HEAD                           ALL TIMES    "1 6409"                                   sim/hds.csv                                                                     
 ----------------------------------------------------------------------------------------------------------------------------------------------------------------------------------------------------------------------------


    BINARY GRID INFORMATION WILL BE WRITTEN TO:
      UNIT NUMBER: 1019
      FILE NAME: /srv/common/ptrack/case_study/pst/ml_04/./ml.disv.grb

 OPENED /srv/common/ptrack/case_study/pst/ml_04/./ml.disv.grb
 FILE TYPE:DATA(BINARY)   UNIT 1019   STATUS:REPLACE             
 FORMAT:UNFORMATTED            ACCESS:STREAM              
 ACTION:READWRITE           

      THE LAST TIME STEP WILL BE PRINTED
      THE LAST TIME STEP WILL BE PRINTED
 # File generated by Flopy version 3.3.5 on 05/30/2022 at 17:40:31.

 PROCESSING OC OPTIONS

    BUDGET INFORMATION WILL BE WRITTEN TO:
      UNIT NUMBER: 1020
      FILE NAME: ml.cbc

 OPENED ml.cbc
 FILE TYPE:DATA(BINARY)   UNIT 1020   STATUS:REPLACE             
 FORMAT:UNFORMATTED            ACCESS:STREAM              
 ACTION:READWRITE           

    HEAD INFORMATION WILL BE WRITTEN TO:
      UNIT NUMBER: 1021
      FILE NAME: ml.hds

 OPENED ml.hds
 FILE TYPE:DATA(BINARY)   UNIT 1021   STATUS:REPLACE             
 FORMAT:UNFORMATTED            ACCESS:STREAM              
 ACTION:READWRITE           

 END OF OC OPTIONS

The observation utility is active for "DRN_0"
 # File generated by Flopy version 3.3.5 on 05/30/2022 at 17:40:31.

Processing observation options:



start timestep kper="1" kstp="1" mode="normal"


 BEGIN READING OUTPUT CONTROL FOR STRESS PERIOD 1
      THE LAST TIME STEP WILL BE SAVED
      THE LAST TIME STEP WILL BE SAVED

 END READING OUTPUT CONTROL FOR STRESS PERIOD 1

 OPENED ext/wel_spd_1.txt
 FILE TYPE:OPEN/CLOSE   UNIT 1023   STATUS:OLD                 
 FORMAT:FORMATTED              ACCESS:SEQUENTIAL          
 ACTION:READ                


 OPENED ext/drn_spd_1.txt
 FILE TYPE:OPEN/CLOSE   UNIT 1024   STATUS:OLD                 
 FORMAT:FORMATTED              ACCESS:SEQUENTIAL          
 ACTION:READ                


 OPENED ext/riv_spd_1.txt
 FILE TYPE:OPEN/CLOSE   UNIT 1025   STATUS:OLD                 
 FORMAT:FORMATTED              ACCESS:SEQUENTIAL          
 ACTION:READ                


 OPENED ../com_ext/ghb_spd_1.txt
 FILE TYPE:OPEN/CLOSE   UNIT 1026   STATUS:OLD                 
 FORMAT:FORMATTED              ACCESS:SEQUENTIAL          
 ACTION:READ                


 OPENED ../com_ext/rech_spd_1.txt
 FILE TYPE:OPEN/CLOSE   UNIT 1027   STATUS:OLD                 
 FORMAT:FORMATTED              ACCESS:SEQUENTIAL          
 ACTION:READ                


 SLN_1 INNER ITERATION SUMMARY
 --------------------------------------------------------------------------------------------------------------------------------------
      TOTAL      OUTER      INNER                                                            MAXIMUM                                   
  ITERATION  ITERATION  ITERATION  MAXIMUM CHANGE      MAXIMUM CHANGE MODEL-(CELLID)        RESIDUAL    MAXIMUM RESIDUAL MODEL-(CELLID)
 --------------------------------------------------------------------------------------------------------------------------------------
          1          1          1       14.924481                    1_GWF-(1,26517)      0.58575072                    1_GWF-(1,11179)
          2          1          2       16.751108                    1_GWF-(1,26516)     -0.40878965                    1_GWF-(1,11179)
          3          1          3       20.981872                    1_GWF-(1,26563)     -0.33715287                    1_GWF-(1,11161)
          4          1          4       21.039517                    1_GWF-(1,26513)      0.33405284                    1_GWF-(1,11178)
          5          1          5       16.247780                    1_GWF-(1,26647)     -0.27698510                    1_GWF-(1,11208)
          6          1          6       20.055136                    1_GWF-(1,26649)     -0.30122972                    1_GWF-(1,11207)
          7          1          7       17.275926                    1_GWF-(1,26622)      0.23755689                    1_GWF-(1,11207)
          8          1          8       11.513816                    1_GWF-(1,26623)     -0.17254282                    1_GWF-(1,11207)
          9          1          9       10.542360                    1_GWF-(1,26589)      0.10840591                    1_GWF-(1,10957)
         10          1         10       9.8822710                    1_GWF-(1,26486)     -0.14170334                    1_GWF-(1,11158)
         11          1         11       9.3869753                    1_GWF-(1,26544)     -0.15278846                    1_GWF-(1,11207)
         12          1         12       7.9034932                    1_GWF-(1,26420)      0.11418671                    1_GWF-(1,11196)
         13          1         13       6.6666124                    1_GWF-(1,26422)  6.78828947E-02                    1_GWF-(1,11194)
         14          1         14      -6.2396755                    1_GWF-(1,26622)     -0.10093990                    1_GWF-(1,11153)
         15          1         15      -5.3325083                    1_GWF-(1,26623) -6.72878513E-02                    1_GWF-(1,11194)
         16          1         16      -4.4143015                    1_GWF-(1,26622)  8.62048523E-02                    1_GWF-(1,11180)
         17          1         17      -4.6800507                    1_GWF-(1,26588) -8.42733490E-02                    1_GWF-(1,11153)
         18          1         18      -5.6900250                    1_GWF-(1,26350) -8.60882015E-02                    1_GWF-(1,11194)
         19          1         19      -6.8522958                    1_GWF-(1,26588)  7.22153817E-02                    1_GWF-(1,11194)
         20          1         20      -5.8520616                    1_GWF-(1,26543) -4.84535001E-02                    1_GWF-(1,11155)
         21          1         21      -4.6487972                    1_GWF-(1,26487) -7.44594858E-02                    1_GWF-(1,11194)
         22          1         22      -5.3414108                    1_GWF-(1,26486)  5.43081912E-02                    1_GWF-(1,11200)
         23          1         23      -4.5901974                    1_GWF-(1,26487)  4.89147569E-02                    1_GWF-(1,11151)
         24          1         24      -4.2960790                    1_GWF-(1,26486) -4.57690735E-02                    1_GWF-(1,11194)
         25          1         25       3.9077255                    1_GWF-(1,26420) -4.78908726E-02                    1_GWF-(1,11109)
         26          1         26       4.3983299                    1_GWF-(1,26487)  4.82608916E-02                    1_GWF-(1,11109)
         27          1         27       4.0499632                    1_GWF-(1,26420)  4.03000666E-02                    1_GWF-(1,11108)
         28          1         28       2.4229812                    1_GWF-(1,26487) -4.03444963E-02                    1_GWF-(1,11195)
         29          1         29       2.1637794                    1_GWF-(1,26588)  4.62737776E-02                    1_GWF-(1,11109)
         30          1         30       2.9560771                    1_GWF-(1,26623)  4.80550435E-02                    1_GWF-(1,11110)
         31          1         31       2.5848178                    1_GWF-(1,26586) -4.23741459E-02                    1_GWF-(1,11150)
         32          1         32       2.2521108                    1_GWF-(1,26648) -3.47497453E-02                    1_GWF-(1,11065)
         33          1         33      -2.0936084                    1_GWF-(1,26422)  2.66048825E-02                    1_GWF-(1,11148)
         34          1         34       2.0505638                    1_GWF-(1,26665) -3.00538070E-02                    1_GWF-(1,11108)
         35          1         35      -1.8697444                    1_GWF-(1,26422) -3.02103058E-02                    1_GWF-(1,11158)
         36          1         36       1.5260959                    1_GWF-(1,26422)  3.11163532E-02                    1_GWF-(1,11065)
         37          1         37       1.4991502                    1_GWF-(1,26350)  3.54307072E-02                    1_GWF-(1,11200)
         38          1         38       1.2578754                    1_GWF-(1,26422)  3.65495263E-02                    1_GWF-(1,11203)
         39          1         39      -1.4078231                    1_GWF-(1,26649)  3.57079599E-02                    1_GWF-(1,11200)
         40          1         40      -1.1578762                    1_GWF-(1,26648) -3.11212808E-02                    1_GWF-(1,11206)
         41          1         41     -0.92831274                    1_GWF-(1,26649) -2.47538791E-02                    1_GWF-(1,11196)
         42          1         42     -0.73677489                    1_GWF-(1,26648) -2.43634951E-02                    1_GWF-(1,11195)
         43          1         43     -0.71203726                    1_GWF-(1,26586)  2.71567623E-02                    1_GWF-(1,11195)
         44          1         44     -0.75324794                    1_GWF-(1,26543)  2.43862580E-02                    1_GWF-(1,11112)
         45          1         45     -0.62743090                    1_GWF-(1,26542)  2.30690910E-02                    1_GWF-(1,11158)
         46          1         46     -0.85856020                    1_GWF-(1,26218)  3.09630876E-02                    1_GWF-(1,11153)
         47          1         47      -1.1846409                    1_GWF-(1,26217) -2.68285113E-02                    1_GWF-(1,11153)
         48          1         48      -1.3281414                    1_GWF-(1,26218) -2.06280927E-02                    1_GWF-(1,11152)
         49          1         49      -1.2825311                    1_GWF-(1,26217) -2.23408900E-02                    1_GWF-(1,11150)
         50          1         50      -1.1749251                    1_GWF-(1,26218) -2.19547471E-02                    1_GWF-(1,11153)
         51          2          1      -97.544508                    1_GWF-(1,26519)     -0.18727983                    1_GWF-(1,26458)
         52          2          2      -36.507833                    1_GWF-(1,26513) -5.24879457E-02                    1_GWF-(1,26516)
         53          2          3      -20.701364                    1_GWF-(1,26637)  5.24907894E-02                    1_GWF-(1,26516)
         54          2          4      -22.083707                    1_GWF-(1,26665) -1.91824176E-02                    1_GWF-(1,26519)
         55          2          5      -12.158485                    1_GWF-(1,26622)  1.99463783E-02                    1_GWF-(1,26519)
         56          2          6      -11.373812                    1_GWF-(1,26589)  1.44296961E-02                    1_GWF-(1,26516)
         57          2          7      -9.8926638                    1_GWF-(1,26543) -1.17506262E-02                    1_GWF-(1,26516)
         58          2          8      -7.9394393                    1_GWF-(1,26486)  8.87053949E-03                    1_GWF-(1,26519)
         59          2          9      -5.3054253                    1_GWF-(1,26487)  6.64462422E-03                    1_GWF-(1,26665)
         60          2         10      -4.5786167                    1_GWF-(1,26421) -5.72523800E-03                    1_GWF-(1,26665)
         61          2         11      -3.9806607                    1_GWF-(1,26350)  4.29381953E-03                    1_GWF-(1,26519)
         62          2         12      -2.9970671                    1_GWF-(1,26217)  3.49580393E-03                    1_GWF-(1,26516)
         63          2         13      -1.5471967                    1_GWF-(1,26622) -2.32883530E-03                    1_GWF-(1,26622)
         64          2         14      -1.2482510                    1_GWF-(1,26623) -2.20608429E-03                    1_GWF-(1,26563)
         65          2         15      -1.1642224                    1_GWF-(1,26622)  3.15313027E-03                    1_GWF-(1,26516)
         66          2         16      -1.5590261                    1_GWF-(1,25730)  4.08864155E-03                    1_GWF-(1,26599)
         67          2         17       1.3724267                    1_GWF-(1,26350) -2.93049960E-03                    1_GWF-(1,26563)
         68          2         18       1.3265849                    1_GWF-(1,26422) -1.98236540E-03                    1_GWF-(1,26588)
         69          2         19       1.2038810                    1_GWF-(1,26588)  1.94571215E-03                    1_GWF-(1,26588)
         70          2         20       1.0196534                    1_GWF-(1,26543) -2.31291768E-03                    1_GWF-(1,26563)
         71          2         21       1.0845983                    1_GWF-(1,26544)  1.97016119E-03                    1_GWF-(1,14801)
         72          2         22       1.1613258                    1_GWF-(1,26543)  2.44537885E-03                    1_GWF-(1,26601)
         73          2         23     -0.89412436                    1_GWF-(1,26218) -2.68870093E-03                    1_GWF-(1,26563)
         74          2         24      -1.4582658                    1_GWF-(1,26487)  2.64028434E-03                    1_GWF-(1,26486)
         75          2         25      -1.6353581                    1_GWF-(1,26486)  2.67569986E-03                    1_GWF-(1,26563)
         76          2         26      -1.5569947                    1_GWF-(1,26487) -2.71152933E-03                    1_GWF-(1,26563)
         77          2         27     -0.93063259                    1_GWF-(1,26420) -1.87361877E-03                    1_GWF-(1,26562)
         78          2         28      0.85677282                    1_GWF-(1,26217)  2.14933131E-03                    1_GWF-(1,26563)
         79          2         29      0.67163452                    1_GWF-(1,26218) -1.71877652E-03                    1_GWF-(1,26563)
         80          2         30      0.68258407                    1_GWF-(1,26420) -1.97997961E-03                    1_GWF-(1,26562)
         81          2         31     -0.47173331                    1_GWF-(1,26674)  1.35385053E-03                    1_GWF-(1,26562)
         82          2         32     -0.45633653                    1_GWF-(1,26421) -1.38724067E-03                    1_GWF-(1,26516)
         83          2         33     -0.56980388                    1_GWF-(1,26350) -1.60548033E-03                    1_GWF-(1,26562)
         84          2         34      0.58148386                    1_GWF-(1,26350)  1.86590257E-03                    1_GWF-(1,26562)
         85          2         35      0.86118022                    1_GWF-(1,26422) -1.30995749E-03                    1_GWF-(1,10966)
         86          2         36      0.55598939                    1_GWF-(1,26350) -1.70591095E-03                    1_GWF-(1,26562)
         87          2         37     -0.53253494                    1_GWF-(1,26350)  1.95723978E-03                    1_GWF-(1,26562)
         88          2         38     -0.34742402                    1_GWF-(1,26422)  1.35141200E-03                    1_GWF-(1,14960)
         89          2         39     -0.34315979                    1_GWF-(1,26544)  1.63243359E-03                    1_GWF-(1,14961)
         90          2         40     -0.37263414                    1_GWF-(1,26486) -2.06778328E-03                    1_GWF-(1,10966)
         91          2         41     -0.25847124                    1_GWF-(1,26420)  2.05405614E-03                    1_GWF-(1,14800)
         92          2         42     -0.20732180                    1_GWF-(1,26588)  2.40973310E-03                    1_GWF-(1,14801)
         93          2         43     -0.25384395                    1_GWF-(1,25852)  3.15942680E-03                    1_GWF-(1,10966)
         94          2         44     -0.23196677                    1_GWF-(1,26217)  3.13033710E-03                    1_GWF-(1,14801)
         95          2         45     -0.20971771                    1_GWF-(1,26420)  5.14913135E-03                    1_GWF-(1,10966)
         96          2         46     -0.19684135                    1_GWF-(1,26569)  4.09779391E-03                    1_GWF-(1,10961)
         97          2         47      0.18644066                    1_GWF-(1,26193)  6.21205899E-03                    1_GWF-(1,10966)
         98          2         48      0.14508603                    1_GWF-(1,26398)  4.60737712E-03                    1_GWF-(1,10961)
         99          2         49      0.14410691                    1_GWF-(1,22773)  5.99275311E-03                    1_GWF-(1,10966)
        100          2         50      0.14810643                    1_GWF-(1,26196)  4.29139937E-03                    1_GWF-(1,10961)
        101          3          1  8.21609101E-02                    1_GWF-(1,22783) -8.32799999E-03                    1_GWF-(1,11936)
        102          3          2      0.15019040                    1_GWF-(1,22783)  4.97920197E-03                    1_GWF-(1,10961)
        103          3          3      0.10522882                    1_GWF-(1,26649)  8.65695639E-03                    1_GWF-(1,11936)
        104          3          4     -0.15057790                    1_GWF-(1,22783) -5.70262585E-03                    1_GWF-(1,11936)
        105          3          5      0.14337503                    1_GWF-(1,26588)  4.33322671E-03                    1_GWF-(1,10966)
        106          3          6      0.11889381                    1_GWF-(1,26194)  3.33450316E-03                    1_GWF-(1,14801)
        107          3          7     -0.12472861                    1_GWF-(1,26543)  3.70526255E-03                    1_GWF-(1,10966)
        108          3          8     -0.11051148                    1_GWF-(1,26421)  2.04025200E-03                    1_GWF-(1,11936)
        109          3          9      0.11298537                    1_GWF-(1,26588)  2.24418682E-03                    1_GWF-(1,10966)
        110          3         10  9.31264526E-02                    1_GWF-(1,26420) -2.28166984E-03                    1_GWF-(1,14800)
        111          3         11      0.12783689                    1_GWF-(1,26486) -1.96866819E-03                    1_GWF-(1,14801)
        112          3         12      0.10718531                    1_GWF-(1,26648) -1.60204226E-03                    1_GWF-(1,14800)
        113          3         13     -0.10314239                    1_GWF-(1,26672) -1.29699573E-03                    1_GWF-(1,14801)
        114          3         14 -9.69622805E-02                    1_GWF-(1,26622)  1.17940384E-03                    1_GWF-(1,11936)
        115          3         15     -0.11414331                    1_GWF-(1,26350)  1.12922785E-03                    1_GWF-(1,15940)
        116          3         16     -0.13023603                    1_GWF-(1,26422)  1.00244065E-03                    1_GWF-(1,10966)
        117          3         17      0.10103261                    1_GWF-(1,26422) -1.12888212E-03                    1_GWF-(1,10966)
        118          3         18      0.12263470                    1_GWF-(1,26350)  8.73669200E-04                    1_GWF-(1,10966)
        119          3         19      0.11511348                    1_GWF-(1,26422)  9.37109387E-04                    1_GWF-(1,14801)
        120          3         20     -0.11025531                    1_GWF-(1,26422)  8.76769092E-04                    1_GWF-(1,14800)
        121          3         21 -8.43863839E-02                    1_GWF-(1,26420)  8.42091753E-04                    1_GWF-(1,14801)
        122          3         22     -0.10233984                    1_GWF-(1,26672)  5.93507298E-04                    1_GWF-(1,14800)
        123          3         23  7.91034788E-02                    1_GWF-(1,26648) -6.35845624E-04                    1_GWF-(1,10961)
        124          3         24      0.12217757                    1_GWF-(1,26588) -8.40293487E-04                    1_GWF-(1,10966)
        125          3         25      0.14123779                    1_GWF-(1,26543) -7.29457939E-04                    1_GWF-(1,14801)
        126          3         26      0.13448842                    1_GWF-(1,26588) -5.77405152E-04                    1_GWF-(1,10965)
        127          3         27      0.12116440                    1_GWF-(1,26420) -1.15421287E-03                    1_GWF-(1,10966)
        128          3         28 -7.33193431E-02                    1_GWF-(1,26586)  9.17191305E-04                    1_GWF-(1,14800)
        129          3         29 -9.51183899E-02                    1_GWF-(1,26543) -1.31013761E-03                    1_GWF-(1,10966)
        130          3         30 -9.26516757E-02                    1_GWF-(1,26420) -1.01571238E-03                    1_GWF-(1,14801)
        131          3         31     -0.10955815                    1_GWF-(1,26487)  7.24067110E-04                    1_GWF-(1,14801)
        132          3         32 -8.78468251E-02                    1_GWF-(1,26420) -3.37471905E-04                    1_GWF-(1,10966)
        133          3         33 -7.24580492E-02                    1_GWF-(1,26422)  9.09649657E-04                    1_GWF-(1,14800)
        134          3         34 -5.39047071E-02                    1_GWF-(1,26350)  1.27295155E-03                    1_GWF-(1,14801)
        135          3         35  4.71521378E-02                    1_GWF-(1,26623)  1.21678808E-03                    1_GWF-(1,14800)
        136          3         36  5.33578612E-02                    1_GWF-(1,26665)  9.84263174E-04                    1_GWF-(1,14801)
        137          3         37  5.87971358E-02                    1_GWF-(1,26666)  4.15935288E-04                    1_GWF-(1,14800)
        138          3         38  6.46966054E-02                    1_GWF-(1,26622)  6.76475075E-04                    1_GWF-(1,14800)
        139          3         39  5.22476949E-02                    1_GWF-(1,22786)  1.28577814E-03                    1_GWF-(1,14801)
        140          3         40  4.59309371E-02                    1_GWF-(1,26487) -1.51326341E-03                    1_GWF-(1,14801)
        141          3         41  7.14596674E-02                    1_GWF-(1,26665)  1.06700034E-03                    1_GWF-(1,14801)
        142          3         42 -9.24776325E-02                    1_GWF-(1,26665)  2.54899816E-04                    1_GWF-(1,10961)
        143          3         43 -9.19075258E-02                    1_GWF-(1,26666)  1.42409231E-03                    1_GWF-(1,14800)
        144          3         44  5.60480096E-02                    1_GWF-(1,26588)  2.07229105E-03                    1_GWF-(1,14801)
        145          3         45  8.30240100E-02                    1_GWF-(1,26665) -2.79166470E-03                    1_GWF-(1,14801)
        146          3         46  6.60037280E-02                    1_GWF-(1,26666) -3.02657766E-03                    1_GWF-(1,14800)
        147          3         47 -4.55332144E-02                    1_GWF-(1,26482) -2.97975478E-03                    1_GWF-(1,14801)
        148          3         48 -4.06192606E-02                    1_GWF-(1,26648)  2.15153972E-03                    1_GWF-(1,14801)
        149          3         49 -5.08835659E-02                    1_GWF-(1,26649) -1.86490789E-03                    1_GWF-(1,14801)
        150          3         50 -4.84167013E-02                    1_GWF-(1,26466) -1.23187436E-03                    1_GWF-(1,14800)
        151          4          1 -2.69344720E-02                    1_GWF-(1,11439) -8.80202469E-04                    1_GWF-(1,14801)
        152          4          2 -2.49880015E-02                    1_GWF-(1,11436)  8.82813506E-04                    1_GWF-(1,14801)
        153          4          3 -2.05721495E-02                    1_GWF-(1,26217) -9.04585727E-04                    1_GWF-(1,14801)
        154          4          4 -2.03282168E-02                    1_GWF-(1,26218) -8.26152201E-04                    1_GWF-(1,14800)
        155          4          5  1.75418942E-02                    1_GWF-(1,26218) -6.45354986E-04                    1_GWF-(1,14801)
        156          4          6 -1.85269260E-02                    1_GWF-(1,26218) -4.14397998E-04                    1_GWF-(1,14800)
        157          4          7 -1.56444590E-02                    1_GWF-(1,26217)  1.68428542E-04                    1_GWF-(1,14800)
        158          4          8 -1.36624437E-02                    1_GWF-(1,26665)  9.40693415E-05                    1_GWF-(1,10966)
        159          4          9  1.68111635E-02                    1_GWF-(1,26665)  2.29360101E-04                    1_GWF-(1,14801)
        160          4         10 -1.57387880E-02                    1_GWF-(1,26665)  2.35243461E-04                    1_GWF-(1,14800)
        161          4         11  1.49734238E-02                    1_GWF-(1,26665)  1.33773519E-04                    1_GWF-(1,14801)
        162          4         12 -7.97791859E-03                    1_GWF-(1,26649)  1.08418470E-04                    1_GWF-(1,14801)
        163          4         13 -7.59114701E-03                    1_GWF-(1,26622)  1.96299753E-04                    1_GWF-(1,14800)
        164          4         14  9.04281140E-03                    1_GWF-(1,26622)  1.89638790E-04                    1_GWF-(1,14801)
        165          4         15  8.12379888E-03                    1_GWF-(1,26623)  1.08805051E-04                    1_GWF-(1,14800)
        166          4         16 -6.62822216E-03                    1_GWF-(1,26623)  6.37276310E-05                    1_GWF-(1,14800)
        167          4         17 -6.62665362E-03                    1_GWF-(1,26622)  1.73384010E-04                    1_GWF-(1,14801)
        168          4         18  4.21535443E-03                    1_GWF-(1,26589)  2.34146723E-04                    1_GWF-(1,14800)
        169          4         19  6.24468399E-03                    1_GWF-(1,26588)  2.32481809E-04                    1_GWF-(1,14801)
        170          4         20 -7.66058038E-03                    1_GWF-(1,26588)  1.16518319E-04                    1_GWF-(1,14800)
        171          4         21  6.98977677E-03                    1_GWF-(1,26420)  7.80802205E-05                    1_GWF-(1,14800)
        172          4         22  4.89651022E-03                    1_GWF-(1,26487)  2.06319080E-04                    1_GWF-(1,14801)
        173          4         23 -4.03240146E-03                    1_GWF-(1,26649) -3.07789045E-04                    1_GWF-(1,14801)
        174          4         24 -4.46360182E-03                    1_GWF-(1,26420) -3.67752045E-04                    1_GWF-(1,14800)
        175          4         25 -6.62638025E-03                    1_GWF-(1,26623) -3.24202241E-04                    1_GWF-(1,14801)
        176          4         26 -6.52312437E-03                    1_GWF-(1,26589) -1.56692834E-04                    1_GWF-(1,14800)
        177          4         27 -6.81034311E-03                    1_GWF-(1,26588)  9.17701251E-05                    1_GWF-(1,14801)
        178          4         28  6.81274121E-03                    1_GWF-(1,26588) -2.44412604E-04                    1_GWF-(1,14801)
        179          4         29 -4.15604653E-03                    1_GWF-(1,26544) -2.49303156E-04                    1_GWF-(1,14800)
        180          4         30  2.75429457E-03                    1_GWF-(1,26544)  2.09279607E-04                    1_GWF-(1,14800)
        181          4         31  4.08053410E-03                    1_GWF-(1,26486)  1.46904142E-04                    1_GWF-(1,14801)
        182          4         32 -3.38599453E-03                    1_GWF-(1,26422)  7.41970292E-05                    1_GWF-(1,14800)
        183          4         33  4.43266215E-03                    1_GWF-(1,26422)  3.41548535E-05                    1_GWF-(1,10966)
        184          4         34 -4.28519080E-03                    1_GWF-(1,26422)  8.62362451E-05                    1_GWF-(1,14801)
        185          4         35 -4.61320885E-03                    1_GWF-(1,26350)  1.36878241E-04                    1_GWF-(1,14800)
        186          4         36 -4.63972387E-03                    1_GWF-(1,26422)  1.58619240E-04                    1_GWF-(1,14801)
        187          4         37 -3.22173331E-03                    1_GWF-(1,26350)  1.52670412E-04                    1_GWF-(1,14800)
        188          4         38 -2.11569661E-03                    1_GWF-(1,26422)  1.49802860E-04                    1_GWF-(1,14801)
        189          4         39 -1.87198491E-03                    1_GWF-(1,22908)  1.27215284E-04                    1_GWF-(1,14800)
        190          4         40 -1.60268544E-03                    1_GWF-(1,22911)  1.17658918E-04                    1_GWF-(1,14801)
        191          4         41  1.59644373E-03                    1_GWF-(1,26394)  9.98480196E-05                    1_GWF-(1,14800)
        192          4         42 -1.49154462E-03                    1_GWF-(1,26663)  8.63654263E-05                    1_GWF-(1,14801)
        193          4         43 -1.59136531E-03                    1_GWF-(1,26674)  7.62330273E-05                    1_GWF-(1,14800)
        194          4         44  1.96658557E-03                    1_GWF-(1,26350)  6.16799715E-05                    1_GWF-(1,14801)
        195          4         45  1.60650410E-03                    1_GWF-(1,26218)  4.62986294E-05                    1_GWF-(1,10965)
        196          4         46  1.56308324E-03                    1_GWF-(1,26487)  7.02538099E-05                    1_GWF-(1,10966)
        197          4         47  9.75899522E-04                    1_GWF-(1,26673) -5.23193609E-05                    1_GWF-(1,10966)
        198          4         48  1.30516964E-03                    1_GWF-(1,26672)  6.59664583E-05                    1_GWF-(1,10966)
        199          4         49 -1.31103481E-03                    1_GWF-(1,26672)  4.55357533E-05                    1_GWF-(1,10961)
        200          4         50 -1.26746838E-03                    1_GWF-(1,26663)  5.18043709E-05                    1_GWF-(1,10966)
        201          5          1 -9.25161415E-03                    1_GWF-(1,11936)  1.96624863E-05                    1_GWF-(1,10965)
        202          5          2 -2.91085987E-03                    1_GWF-(1,11935)  3.18146841E-05                    1_GWF-(1,10966)
        203          5          3 -1.41838368E-03                    1_GWF-(1,11925)  2.41655975E-05                    1_GWF-(1,10965)
        204          5          4 -1.02232429E-03                    1_GWF-(1,11927)  3.85679292E-05                    1_GWF-(1,10966)
        205          5          5  9.91315776E-04                    1_GWF-(1,12190)  3.12868736E-05                    1_GWF-(1,10965)
        206          5          6  9.13028835E-04                    1_GWF-(1,11935)  4.07305338E-05                    1_GWF-(1,10966)
        207          5          7 -1.13125681E-03                    1_GWF-(1,26672)  2.59194889E-05                    1_GWF-(1,10961)
        208          5          8  1.16436398E-03                    1_GWF-(1,11999)  3.19227563E-05                    1_GWF-(1,10966)
        209          5          9  1.15429484E-03                    1_GWF-(1,11987)  1.48422038E-05                    1_GWF-(1,10965)
        210          5         10 -1.22880478E-03                    1_GWF-(1,26649)  8.62774542E-06                    1_GWF-(1,10966)
        211          5         11  1.57611380E-03                    1_GWF-(1,26649)  1.80194623E-05                    1_GWF-(1,10966)
        212          5         12  1.91635886E-03                    1_GWF-(1,26622)  1.35713262E-05                    1_GWF-(1,10961)
        213          5         13  1.67942609E-03                    1_GWF-(1,26623)  7.09188182E-06                    1_GWF-(1,11924)
        214          5         14  1.28068673E-03                    1_GWF-(1,26622)  6.29784776E-06                    1_GWF-(1,11923)
        215          5         15  9.71191251E-04                    1_GWF-(1,26623)  1.08897717E-05                    1_GWF-(1,10965)
        216          5         16 -7.81613155E-04                    1_GWF-(1,12088)  2.10657125E-05                    1_GWF-(1,10966)
        217          5         17 -7.72994641E-04                    1_GWF-(1,12079) -2.56302051E-05                    1_GWF-(1,10966)
        218          5         18  1.26749102E-03                    1_GWF-(1,26486) -1.92053545E-05                    1_GWF-(1,10961)
        219          5         19 -1.25327876E-03                    1_GWF-(1,26486) -9.98406186E-06                    1_GWF-(1,10966)
        220          5         20 -1.20175498E-03                    1_GWF-(1,26487) -1.05955040E-05                    1_GWF-(1,10966)
        221          5         21 -9.06112816E-04                    1_GWF-(1,26486) -2.05347447E-05                    1_GWF-(1,10965)
        222          5         22 -6.45072104E-04                    1_GWF-(1,26422) -3.46926146E-05                    1_GWF-(1,10966)
        223          5         23 -8.58653522E-04                    1_GWF-(1,26350)  3.56841012E-05                    1_GWF-(1,10966)
        224          5         24 -1.00923990E-03                    1_GWF-(1,26422) -3.25432153E-05                    1_GWF-(1,10966)
        225          5         25 -9.26318006E-04                    1_GWF-(1,26350)  2.41267084E-05                    1_GWF-(1,10966)
        226          5         26  1.08364835E-03                    1_GWF-(1,26350) -2.17797174E-05                    1_GWF-(1,10966)
        227          5         27  1.17591617E-03                    1_GWF-(1,26422) -5.46667736E-06                    1_GWF-(1,10958)
        228          5         28  8.91309429E-04                    1_GWF-(1,26350)  1.47870562E-05                    1_GWF-(1,10966)
        229          5         29  6.63951497E-04                    1_GWF-(1,26486) -2.64622715E-05                    1_GWF-(1,10966)
        230          5         30 -6.79422754E-04                    1_GWF-(1,26588)  2.05783584E-05                    1_GWF-(1,10966)
        231          5         31  7.54094716E-04                    1_GWF-(1,26588) -1.65768920E-05                    1_GWF-(1,10966)
        232          5         32 -6.84106347E-04                    1_GWF-(1,26588)  3.10986404E-06                    1_GWF-(1,14799)
        233          5         33 -5.58752432E-04                    1_GWF-(1,26422)  1.17918467E-05                    1_GWF-(1,10966)
        234          5         34 -4.69160412E-04                    1_GWF-(1,26350) -1.98081036E-05                    1_GWF-(1,10966)
        235          5         35 -3.25265946E-04                    1_GWF-(1,26421)  2.12133177E-05                    1_GWF-(1,10966)
        236          5         36 -2.24432847E-04                    1_GWF-(1,26420) -1.99146803E-05                    1_GWF-(1,10966)
        237          5         37 -1.93180231E-04                     1_GWF-(1,2333)  2.03227271E-05                    1_GWF-(1,10966)
        238          5         38 -1.89665962E-04                      1_GWF-(1,519) -1.87343955E-05                    1_GWF-(1,10966)
        239          5         39 -1.84515073E-04                      1_GWF-(1,507)  1.90697082E-05                    1_GWF-(1,10966)
        240          5         40 -2.08910904E-04                    1_GWF-(1,11864) -1.80070906E-05                    1_GWF-(1,10966)
        241          5         41 -2.37090728E-04                    1_GWF-(1,26218)  1.63985797E-05                    1_GWF-(1,10966)
        242          5         42 -3.58874551E-04                    1_GWF-(1,26217) -1.20560695E-05                    1_GWF-(1,10966)
        243          5         43 -4.88620195E-04                    1_GWF-(1,26665)  5.44974911E-06                    1_GWF-(1,10966)
        244          5         44  5.01777048E-04                    1_GWF-(1,26665)  2.67380960E-06                    1_GWF-(1,10966)
        245          5         45  5.52919808E-04                    1_GWF-(1,26666) -6.28120898E-06                    1_GWF-(1,10966)
        246          5         46  6.29815451E-04                    1_GWF-(1,26665)  9.18493079E-06                    1_GWF-(1,10966)
        247          5         47  4.26433558E-04                    1_GWF-(1,26666) -6.10260568E-06                    1_GWF-(1,10966)
        248          5         48  3.34070161E-04                    1_GWF-(1,26217)  6.32666845E-06                    1_GWF-(1,10966)
        249          5         49  3.41167817E-04                    1_GWF-(1,26218)  3.27359493E-06                    1_GWF-(1,10960)
        250          5         50  3.09410877E-04                    1_GWF-(1,26217)  2.64155762E-06                    1_GWF-(1,10873)
        251          6          1 -3.12479958E-04                    1_GWF-(1,26217)  2.53442074E-06                    1_GWF-(1,10960)
        252          6          2 -3.31934031E-04                    1_GWF-(1,26218) -1.55412052E-06                    1_GWF-(1,15940)
        253          6          3 -2.91602307E-04                    1_GWF-(1,26217)  1.51376699E-06                    1_GWF-(1,10967)
        254          6          4 -2.06079219E-04                    1_GWF-(1,26218)  1.31457737E-06                    1_GWF-(1,10960)
        255          6          5 -2.77194061E-04                    1_GWF-(1,26588)  1.67738777E-06                    1_GWF-(1,10962)
        256          6          6 -2.81609153E-04                    1_GWF-(1,26543)  8.50871484E-07                    1_GWF-(1,15300)
        257          6          7 -2.16481168E-04                    1_GWF-(1,26487)  1.02147264E-06                    1_GWF-(1,11132)
        258          6          8 -1.37091133E-04                    1_GWF-(1,26420) -1.13984886E-06                    1_GWF-(1,10958)
        259          6          9  1.39664650E-04                    1_GWF-(1,26622) -8.89079765E-07                    1_GWF-(1,11132)
        260          6         10  1.44757679E-04                    1_GWF-(1,26487) -9.98057962E-07                    1_GWF-(1,10961)
        261          6         11  1.33829316E-04                    1_GWF-(1,26622)  6.87552212E-07                    1_GWF-(1,11040)
        262          6         12 -9.01534038E-05                    1_GWF-(1,26622)  9.48068148E-07                    1_GWF-(1,14800)
        263          6         13  9.83295280E-05                    1_GWF-(1,26218)  1.05301806E-06                    1_GWF-(1,11138)
        264          6         14  7.15441157E-05                    1_GWF-(1,26649)  9.78557230E-07                    1_GWF-(1,10961)
        265          6         15  9.24145110E-05                    1_GWF-(1,26622)  6.82543908E-07                    1_GWF-(1,14800)
        266          6         16  1.07570416E-04                    1_GWF-(1,26649)  6.18899299E-07                    1_GWF-(1,14801)
        267          6         17 -9.97160346E-05                    1_GWF-(1,26649)  6.20690573E-07                    1_GWF-(1,10967)
        268          6         18 -7.22667044E-05                    1_GWF-(1,26622)  6.37295779E-07                    1_GWF-(1,11141)
        269          6         19  4.59118831E-05                    1_GWF-(1,25761)  9.46458610E-07                    1_GWF-(1,15940)
        270          6         20  5.53857640E-05                    1_GWF-(1,25766) -1.05290301E-06                    1_GWF-(1,15940)
        271          6         21  5.26183082E-05                    1_GWF-(1,25719)  1.28480691E-06                    1_GWF-(1,15940)
        272          6         22  4.44927057E-05                    1_GWF-(1,25716) -1.22670238E-06                    1_GWF-(1,15940)
        273          6         23 -5.94932051E-05                    1_GWF-(1,26486)  1.21598983E-06                    1_GWF-(1,15940)
        274          6         24 -5.90170558E-05                    1_GWF-(1,26544) -1.05402962E-06                    1_GWF-(1,15940)
        275          6         25 -7.06639818E-05                    1_GWF-(1,26422) -6.94372902E-07                    1_GWF-(1,11132)
        276          6         26 -8.37273026E-05                    1_GWF-(1,26350)  7.03544483E-07                    1_GWF-(1,11132)
        277          6         27 -8.30363968E-05                    1_GWF-(1,26422)  5.81007485E-07                    1_GWF-(1,10961)
        278          6         28  8.14062872E-05                    1_GWF-(1,26422)  5.05119493E-07                    1_GWF-(1,15940)
        279          6         29  6.72675854E-05                    1_GWF-(1,26588) -5.04624808E-07                    1_GWF-(1,15940)
        280          6         30 -5.92753280E-05                    1_GWF-(1,26588)  4.08215586E-07                    1_GWF-(1,14801)
        281          6         31  6.03786638E-05                    1_GWF-(1,26588)  2.52312799E-07                    1_GWF-(1,11130)
        282          6         32 -5.45093236E-05                    1_GWF-(1,26588) -4.28020275E-07                    1_GWF-(1,10961)
        283          6         33  4.49962431E-05                    1_GWF-(1,26422)  4.94608965E-07                    1_GWF-(1,15940)
        284          6         34 -4.30312858E-05                    1_GWF-(1,26486) -4.99507678E-07                    1_GWF-(1,15940)
        285          6         35 -3.54725710E-05                    1_GWF-(1,26350)  4.76679140E-07                    1_GWF-(1,15940)
        286          6         36 -3.46345297E-05                    1_GWF-(1,26422) -4.14911802E-07                    1_GWF-(1,15940)
        287          6         37 -2.87385911E-05                    1_GWF-(1,26350) -4.32545653E-07                    1_GWF-(1,14800)
        288          6         38 -2.39038872E-05                    1_GWF-(1,26422)  4.72545174E-07                    1_GWF-(1,14800)
        289          6         39  2.08997585E-05                    1_GWF-(1,26649)  6.70032883E-07                    1_GWF-(1,14801)
        290          6         40  2.62194851E-05                    1_GWF-(1,26648)  5.09019710E-07                    1_GWF-(1,14800)
        291          6         41  3.60623061E-05                    1_GWF-(1,26649)  2.91440122E-07                    1_GWF-(1,14801)
        292          6         42  3.78837631E-05                    1_GWF-(1,26486)  1.88443047E-07                    1_GWF-(1,10963)
        293          6         43  3.43830154E-05                    1_GWF-(1,26487)  3.71773558E-07                    1_GWF-(1,14800)
        294          6         44  2.75204862E-05                    1_GWF-(1,26486)  3.89268349E-07                    1_GWF-(1,14801)
        295          6         45  2.01835728E-05                    1_GWF-(1,26487)  3.81100178E-07                    1_GWF-(1,14800)
        296          6         46  2.03707768E-05                    1_GWF-(1,26486)  3.57432910E-07                    1_GWF-(1,14801)
        297          6         47  1.61799196E-05                    1_GWF-(1,26487) -2.73157332E-07                    1_GWF-(1,14801)
        298          6         48  1.42596398E-05                    1_GWF-(1,26649) -1.83229791E-07                    1_GWF-(1,14800)
        299          6         49  1.66838639E-05                    1_GWF-(1,11943)  1.71625163E-07                    1_GWF-(1,10957)
        300          6         50  2.24356723E-05                    1_GWF-(1,11935)  2.65775320E-07                    1_GWF-(1,11935)
        301          7          1 -2.47546050E-05                    1_GWF-(1,11935)  1.46856898E-07                    1_GWF-(1,10966)
        302          7          2  1.80192990E-05                    1_GWF-(1,26649)  1.34373960E-07                    1_GWF-(1,10960)
        303          7          3 -2.14826968E-05                    1_GWF-(1,26486)  1.29725529E-07                    1_GWF-(1,11154)
        304          7          4 -2.27362762E-05                    1_GWF-(1,26487)  1.15778701E-07                    1_GWF-(1,10966)
        305          7          5 -1.94065922E-05                    1_GWF-(1,26486)  1.27461187E-07                    1_GWF-(1,10960)
        306          7          6 -1.63522783E-05                    1_GWF-(1,26487)  1.75570757E-07                    1_GWF-(1,10966)
        307          7          7 -1.83325414E-05                    1_GWF-(1,26674)  1.25900254E-07                    1_GWF-(1,11150)
        308          7          8  2.01819079E-05                    1_GWF-(1,26674) -1.18310157E-07                    1_GWF-(1,11936)
        309          7          9  2.09070422E-05                    1_GWF-(1,26663) -1.46879158E-07                    1_GWF-(1,11150)
        310          7         10 -1.85446721E-05                    1_GWF-(1,26666)  1.41476535E-07                    1_GWF-(1,11150)
        311          7         11 -2.09534705E-05                    1_GWF-(1,26665)  1.08425831E-07                    1_GWF-(1,11065)
        312          7         12  1.73609447E-05                    1_GWF-(1,26622)  1.05815925E-07                    1_GWF-(1,11152)
        313          7         13  1.89036475E-05                    1_GWF-(1,26623) -1.32024260E-07                    1_GWF-(1,11065)
        314          7         14  1.59548432E-05                    1_GWF-(1,26622) -1.02933530E-07                    1_GWF-(1,10965)
        315          7         15  1.60462545E-05                    1_GWF-(1,26487) -9.16881432E-08                    1_GWF-(1,14799)
        316          7         16  1.66474384E-05                    1_GWF-(1,26543)  1.10342693E-07                    1_GWF-(1,10966)
        317          7         17  1.64114567E-05                    1_GWF-(1,26665)  8.63540311E-08                    1_GWF-(1,11065)
        318          7         18  1.36746627E-05                    1_GWF-(1,26543) -1.45772141E-07                    1_GWF-(1,10966)
        319          7         19  1.02161107E-05                    1_GWF-(1,26588) -8.86420223E-08                    1_GWF-(1,11147)
        320          7         20 -1.35715259E-05                    1_GWF-(1,26588)  1.13044527E-07                    1_GWF-(1,10961)
        321          7         21  1.43660926E-05                    1_GWF-(1,26588) -7.97384727E-08                    1_GWF-(1,11139)
        322          7         22 -1.72665849E-05                    1_GWF-(1,26588) -1.22353316E-07                    1_GWF-(1,10961)
        323          7         23 -1.33809331E-05                    1_GWF-(1,26589) -7.84852436E-08                    1_GWF-(1,11106)
        324          7         24 -1.39430758E-05                    1_GWF-(1,26588)  9.42394979E-08                    1_GWF-(1,15940)
        325          7         25 -7.43870575E-06                    1_GWF-(1,26543) -1.37205085E-07                    1_GWF-(1,10966)
        326          7         26  6.02339861E-06                    1_GWF-(1,26422) -1.58798345E-07                    1_GWF-(1,11132)
        327          7         27  6.87002473E-06                    1_GWF-(1,26350) -1.63596461E-07                    1_GWF-(1,15940)
        328          7         28  8.12398216E-06                    1_GWF-(1,26486)  1.51638632E-07                    1_GWF-(1,15940)
        329          7         29  8.13317353E-06                    1_GWF-(1,26350) -1.27498965E-07                    1_GWF-(1,15940)
        330          7         30  9.44662760E-06                    1_GWF-(1,26422)  8.89172492E-08                    1_GWF-(1,15940)
        331          7         31  9.49217839E-06                    1_GWF-(1,26350)  8.53477281E-08                    1_GWF-(1,14801)
        332          7         32  8.68279688E-06                    1_GWF-(1,26486) -6.50345366E-08                    1_GWF-(1,10967)
        333          7         33 -7.83151372E-06                    1_GWF-(1,26486) -4.57374185E-08                    1_GWF-(1,11150)
        334          7         34  8.51082253E-06                    1_GWF-(1,26486) -5.73005667E-08                    1_GWF-(1,15940)
        335          7         35  7.38430632E-06                    1_GWF-(1,26622)  5.80641722E-08                    1_GWF-(1,14800)
        336          7         36 -6.44338221E-06                    1_GWF-(1,26622)  4.07150636E-08                    1_GWF-(1,14799)
        337          7         37  6.93176465E-06                    1_GWF-(1,26422) -4.43135438E-08                    1_GWF-(1,15940)
        338          7         38 -5.44570360E-06                    1_GWF-(1,26422)  6.56494746E-08                    1_GWF-(1,15940)
        339          7         39 -4.76648580E-06                    1_GWF-(1,26350) -7.21951701E-08                    1_GWF-(1,15940)
        340          7         40 -4.06398510E-06                    1_GWF-(1,26421)  6.68867772E-08                    1_GWF-(1,15940)
        341          7         41 -4.85765936E-06                    1_GWF-(1,26544) -6.15821090E-08                    1_GWF-(1,15940)
        342          7         42 -6.94759750E-06                    1_GWF-(1,26486)  5.66844960E-08                    1_GWF-(1,14800)
        343          7         43 -5.52062665E-06                    1_GWF-(1,26487)  2.61585524E-08                    1_GWF-(1,14801)
        344          7         44  6.48011982E-06                    1_GWF-(1,26487)  3.74037579E-08                    1_GWF-(1,11132)
        345          7         45  6.14803950E-06                    1_GWF-(1,26486)  4.43103927E-08                    1_GWF-(1,15940)
        346          7         46  5.03614017E-06                    1_GWF-(1,26588)  4.81334165E-08                    1_GWF-(1,10963)
        347          7         47  3.51741707E-06                    1_GWF-(1,26420) -5.33770501E-08                    1_GWF-(1,14801)
        348          7         48  4.45901206E-06                    1_GWF-(1,26218) -5.00396514E-08                    1_GWF-(1,14800)
        349          7         49  4.47320915E-06                    1_GWF-(1,26217) -4.06594186E-08                    1_GWF-(1,14801)
        350          7         50  3.58644238E-06                    1_GWF-(1,26218)  3.45580896E-08                    1_GWF-(1,10967)
        351          8          1 -3.92133487E-06                    1_GWF-(1,26218) -5.03413607E-08                    1_GWF-(1,14801)
        352          8          2 -4.74870642E-06                    1_GWF-(1,26217) -3.67137252E-08                    1_GWF-(1,14800)
        353          8          3 -3.55903254E-06                    1_GWF-(1,26218)  2.04331616E-08                    1_GWF-(1,11212)
        354          8          4 -3.37475568E-06                    1_GWF-(1,26665)  2.40978226E-08                    1_GWF-(1,10963)
        355          8          5 -3.24059394E-06                    1_GWF-(1,26588) -2.78586363E-08                    1_GWF-(1,14800)
        356          8          6 -2.66218008E-06                    1_GWF-(1,26487)  2.56940543E-08                    1_GWF-(1,14800)
        357          8          7 -2.21612195E-06                    1_GWF-(1,26420)  1.83304815E-08                    1_GWF-(1,14801)
        358          8          8  2.13156994E-06                    1_GWF-(1,26588)  1.69653122E-08                    1_GWF-(1,11062)
        359          8          9 -2.17901377E-06                    1_GWF-(1,26665)  1.84361758E-08                    1_GWF-(1,14800)
        360          8         10  2.52841795E-06                    1_GWF-(1,26665)  1.97409064E-08                    1_GWF-(1,14801)
        361          8         11 -2.23975290E-06                    1_GWF-(1,26665)  1.55776432E-08                    1_GWF-(1,14800)
        362          8         12  1.38805089E-06                    1_GWF-(1,26218) -1.53564925E-08                    1_GWF-(1,11063)
        363          8         13 -1.74615810E-06                    1_GWF-(1,26649)  1.73344180E-08                    1_GWF-(1,14801)
        364          8         14  1.99536923E-06                    1_GWF-(1,26649)  1.76179549E-08                    1_GWF-(1,14800)
        365          8         15  2.09948940E-06                    1_GWF-(1,26622)  1.49128833E-08                    1_GWF-(1,14801)
        366          8         16  1.46101450E-06                    1_GWF-(1,26649) -1.36003131E-08                    1_GWF-(1,10963)
        367          8         17 -1.16961407E-06                    1_GWF-(1,26487) -1.68220293E-08                    1_GWF-(1,10966)
        368          8         18 -1.20680064E-06                    1_GWF-(1,26486)  1.86944655E-08                    1_GWF-(1,14801)
        369          8         19  1.74164411E-06                    1_GWF-(1,26486)  1.98030831E-08                    1_GWF-(1,14800)
        370          8         20 -1.68306080E-06                    1_GWF-(1,26543) -1.59539005E-08                    1_GWF-(1,10960)
        371          8         21 -1.61066594E-06                    1_GWF-(1,26588) -1.68266923E-08                    1_GWF-(1,10961)
        372          8         22 -1.03243216E-06                    1_GWF-(1,26543) -2.18470559E-08                    1_GWF-(1,10966)
        373          8         23 -6.92437025E-07                    1_GWF-(1,26588)  2.07480753E-08                    1_GWF-(1,14801)
        374          9          1 -3.87060793E-07                    1_GWF-(1,26589)  1.93906254E-08                    1_GWF-(1,14800)
 --------------------------------------------------------------------------------------------------------------------------------------


 UBDSV1 SAVING     FLOW-JA-FACE ON UNIT   1020 AT TIME STEP      1, STRESS PERIOD      1
 UBDSV06 SAVING       DATA-SPDIS IN MODEL ML               PACKAGE NPF             CONNECTED TO MODEL ML               PACKAGE NPF              ON UNIT   1020 AT TIME STEP      1, STRESS PERIOD      1
 UBDSV06 SAVING              WEL IN MODEL ML               PACKAGE ML              CONNECTED TO MODEL ML               PACKAGE WEL_0            ON UNIT   1020 AT TIME STEP      1, STRESS PERIOD      1
 UBDSV06 SAVING              DRN IN MODEL ML               PACKAGE ML              CONNECTED TO MODEL ML               PACKAGE DRN_0            ON UNIT   1020 AT TIME STEP      1, STRESS PERIOD      1
 UBDSV06 SAVING              RIV IN MODEL ML               PACKAGE ML              CONNECTED TO MODEL ML               PACKAGE RIV_0            ON UNIT   1020 AT TIME STEP      1, STRESS PERIOD      1
 UBDSV06 SAVING              GHB IN MODEL ML               PACKAGE ML              CONNECTED TO MODEL ML               PACKAGE GHB_0            ON UNIT   1020 AT TIME STEP      1, STRESS PERIOD      1
 UBDSV06 SAVING              RCH IN MODEL ML               PACKAGE ML              CONNECTED TO MODEL ML               PACKAGE RCHA_0           ON UNIT   1020 AT TIME STEP      1, STRESS PERIOD      1

 HEAD WILL BE SAVED ON UNIT 1021 AT END OF TIME STEP    1, STRESS PERIOD    1


  VOLUME BUDGET FOR ENTIRE MODEL AT END OF TIME STEP    1, STRESS PERIOD   1
  ---------------------------------------------------------------------------------------------------

     CUMULATIVE VOLUME      L**3       RATES FOR THIS TIME STEP      L**3/T          PACKAGE NAME    
     ------------------                 ------------------------                     ----------------

           IN:                                      IN:
           ---                                      ---
                 WEL =           0.0000                   WEL =           0.0000     WEL_0           
                 DRN =           0.0000                   DRN =           0.0000     DRN_0           
                 RIV =           3.2775                   RIV =           0.8194     RIV_0           
                 GHB =           4.5507                   GHB =           1.1377     GHB_0           
                 RCH =           3.3054                   RCH =           0.8264     RCHA_0          

            TOTAL IN =          11.1336              TOTAL IN =           2.7834

          OUT:                                     OUT:
          ----                                     ----
                 WEL =           0.8792                   WEL =           0.2198     WEL_0           
                 DRN =           0.6995                   DRN =           0.1749     DRN_0           
                 RIV =           9.0710                   RIV =           2.2677     RIV_0           
                 GHB =           0.4839                   GHB =           0.1210     GHB_0           
                 RCH =           0.0000                   RCH =           0.0000     RCHA_0          

           TOTAL OUT =          11.1336             TOTAL OUT =           2.7834

            IN - OUT =      -2.4662E-06              IN - OUT =      -6.1655E-07

 PERCENT DISCREPANCY =          -0.00     PERCENT DISCREPANCY =          -0.00




         TIME SUMMARY AT END OF TIME STEP    1 IN STRESS PERIOD    1
                    SECONDS     MINUTES      HOURS       DAYS        YEARS
                    -----------------------------------------------------------
   TIME STEP LENGTH  4.0000     6.66667E-02 1.11111E-03 4.62963E-05 1.26752E-07
 STRESS PERIOD TIME  4.0000     6.66667E-02 1.11111E-03 4.62963E-05 1.26752E-07
         TOTAL TIME  4.0000     6.66667E-02 1.11111E-03 4.62963E-05 1.26752E-07


end timestep

