                                   MODFLOW 6
                U.S. GEOLOGICAL SURVEY MODULAR HYDROLOGIC MODEL
                          GROUNDWATER FLOW MODEL (GWF)
                            VERSION 6.2.2 07/30/2021

   MODFLOW 6 compiled Jul 31 2021 14:22:53 with IFORT compiler (ver. 19.10.3)

This software has been approved for release by the U.S. Geological 
Survey (USGS). Although the software has been subjected to rigorous 
review, the USGS reserves the right to update the software as needed 
pursuant to further analysis and review. No warranty, expressed or 
implied, is made by the USGS or the U.S. Government as to the 
functionality of the software and related material nor shall the 
fact of release constitute any such warranty. Furthermore, the 
software is released on condition that neither the USGS nor the U.S. 
Government shall be held liable for any damages resulting from its 
authorized or unauthorized use. Also refer to the USGS Water 
Resources Software User Rights Notice for complete use, copyright, 
and distribution information.


System command used to initiate simulation:
mf6

MODFLOW was compiled using uniform precision.

Real Variables
  KIND: 8
  TINY (smallest non-zero value):    2.225074-308
  HUGE (largest value):    1.797693+308
  PRECISION: 15
  BIT SIZE: 64

Integer Variables
  KIND: 4
  HUGE (largest value): 2147483647
  BIT SIZE: 32

Long Integer Variables
  KIND: 8
  HUGE (largest value): 9223372036854775807
  BIT SIZE: 64

Logical Variables
  KIND: 4
  BIT SIZE: 32
 

 OPENED ./ml.disv
 FILE TYPE:DISV6                  UNIT 1005   STATUS:OLD                 
 FORMAT:FORMATTED              ACCESS:SEQUENTIAL          
 ACTION:READ                


 OPENED ./ml.ic
 FILE TYPE:IC6                    UNIT 1006   STATUS:OLD                 
 FORMAT:FORMATTED              ACCESS:SEQUENTIAL          
 ACTION:READ                


 OPENED ./ml.npf
 FILE TYPE:NPF6                   UNIT 1007   STATUS:OLD                 
 FORMAT:FORMATTED              ACCESS:SEQUENTIAL          
 ACTION:READ                


 OPENED ./ml.ghb
 FILE TYPE:GHB6                   UNIT 1008   STATUS:OLD                 
 FORMAT:FORMATTED              ACCESS:SEQUENTIAL          
 ACTION:READ                


 OPENED ./ml.rcha
 FILE TYPE:RCH6                   UNIT 1009   STATUS:OLD                 
 FORMAT:FORMATTED              ACCESS:SEQUENTIAL          
 ACTION:READ                


 OPENED ./ml.obs
 FILE TYPE:OBS6                   UNIT 1010   STATUS:OLD                 
 FORMAT:FORMATTED              ACCESS:SEQUENTIAL          
 ACTION:READ                


 OPENED ./ml.oc
 FILE TYPE:OC6                    UNIT 1011   STATUS:OLD                 
 FORMAT:FORMATTED              ACCESS:SEQUENTIAL          
 ACTION:READ                


 OPENED ml.wel
 FILE TYPE:WEL6                   UNIT 1012   STATUS:OLD                 
 FORMAT:FORMATTED              ACCESS:SEQUENTIAL          
 ACTION:READ                


 OPENED ml.drn
 FILE TYPE:DRN6                   UNIT 1013   STATUS:OLD                 
 FORMAT:FORMATTED              ACCESS:SEQUENTIAL          
 ACTION:READ                


 OPENED ml.riv
 FILE TYPE:RIV6                   UNIT 1014   STATUS:OLD                 
 FORMAT:FORMATTED              ACCESS:SEQUENTIAL          
 ACTION:READ                


 DISV -- VERTEX GRID DISCRETIZATION PACKAGE, VERSION 1 : 12/23/2015 - INPUT READ FROM UNIT 1005


 # File generated by Flopy version 3.3.5 on 04/28/2022 at 15:58:53.

 PROCESSING DISCRETIZATION OPTIONS
    MODEL LENGTH UNIT IS METERS
    XORIGIN SPECIFIED AS     405575.681000000    
    YORIGIN SPECIFIED AS     6423306.54000000    
 END OF DISCRETIZATION OPTIONS

 PROCESSING DISCRETIZATION DIMENSIONS
   NLAY = 1
   NCPL = 26674
   NVERT = 27090
 END OF DISCRETIZATION DIMENSIONS

 PROCESSING GRIDDATA
 END PROCESSING GRIDDATA

 PROCESSING VERTICES
   SUCCESSFULLY READ 27090 (X,Y) COORDINATES
   MINIMUM X COORDINATE =     405575.681000000    
   MAXIMUM X COORDINATE =     413975.681000000    
   MINIMUM Y COORDINATE =     6423306.54000000    
   MAXIMUM Y COORDINATE =     6432506.54000000    
 END PROCESSING VERTICES

 PROCESSING CELL2D
   SUCCESSFULLY READ 26674 CELL2D INFORMATION ENTRIES
   MINIMUM X CELL CENTER =     405675.681000000    
   MAXIMUM X CELL CENTER =     413875.681000000    
   MINIMUM Y CELL CENTER =     6423406.54000000    
   MAXIMUM Y CELL CENTER =     6432406.54000000    
   MAXIMUM NUMBER OF CELL2D VERTICES IS 6 FOR CELL 208
 END PROCESSING VERTICES

 NPF -- NODE PROPERTY FLOW PACKAGE, VERSION 1, 3/30/2015 INPUT READ FROM UNIT 1007


 # File generated by Flopy version 3.3.5 on 04/28/2022 at 15:58:55.
 PROCESSING NPF OPTIONS
    CELL-BY-CELL FLOW INFORMATION WILL BE SAVED TO BINARY FILE WHENEVER ICBCFL IS NOT ZERO.
    SPECIFIC DISCHARGE WILL BE CALCULATED AT CELL CENTERS AND WRITTEN TO DATA-SPDIS IN BUDGET FILE WHEN REQUESTED.
 END OF NPF OPTIONS

 WEL   -- WEL PACKAGE, VERSION 8, 2/22/2014 INPUT READ FROM UNIT 1012
 # File generated by Flopy version 3.3.5 on 04/28/2022 at 15:58:56.

 PROCESSING WEL OPTIONS
    WEL BOUNDARIES HAVE NAMES IN LAST COLUMN.
    FLOWS WILL BE SAVED TO BUDGET FILE SPECIFIED IN OUTPUT CONTROL
 END OF WEL OPTIONS

 PROCESSING WEL DIMENSIONS
    MAXBOUND =       9
 END OF WEL DIMENSIONS

 DRN   -- DRN PACKAGE, VERSION 8, 2/22/2014 INPUT READ FROM UNIT 1013
 # File generated by Flopy version 3.3.5 on 04/28/2022 at 15:58:56.

 PROCESSING DRN OPTIONS
    DRN BOUNDARIES HAVE NAMES IN LAST COLUMN.
    FLOWS WILL BE SAVED TO BUDGET FILE SPECIFIED IN OUTPUT CONTROL

 OPENED ml.drn.obs
 FILE TYPE:OBS   UNIT 1016   STATUS:OLD                 
 FORMAT:FORMATTED              ACCESS:SEQUENTIAL          
 ACTION:READ                

 END OF DRN OPTIONS

 PROCESSING DRN DIMENSIONS
    MAXBOUND =     133
 END OF DRN DIMENSIONS

 RIV   -- RIV PACKAGE, VERSION 8, 2/22/2014 INPUT READ FROM UNIT 1014
 # File generated by Flopy version 3.3.5 on 04/28/2022 at 15:58:56.

 PROCESSING RIV OPTIONS
    AUXILIARY RIV VARIABLE: FID             
    RIV BOUNDARIES HAVE NAMES IN LAST COLUMN.
    FLOWS WILL BE SAVED TO BUDGET FILE SPECIFIED IN OUTPUT CONTROL
 END OF RIV OPTIONS

 PROCESSING RIV DIMENSIONS
    MAXBOUND =     794
 END OF RIV DIMENSIONS

 GHB   -- GHB PACKAGE, VERSION 8, 2/22/2014 INPUT READ FROM UNIT 1008
 # File generated by Flopy version 3.3.5 on 04/28/2022 at 15:58:55.

 PROCESSING GHB OPTIONS
    GHB BOUNDARIES HAVE NAMES IN LAST COLUMN.
    FLOWS WILL BE SAVED TO BUDGET FILE SPECIFIED IN OUTPUT CONTROL
 END OF GHB OPTIONS

 PROCESSING GHB DIMENSIONS
    MAXBOUND =     153
 END OF GHB DIMENSIONS

 RCH   -- RCH PACKAGE, VERSION 8, 2/22/2014 INPUT READ FROM UNIT 1009
 # File generated by Flopy version 3.3.5 on 04/28/2022 at 15:58:55.

 PROCESSING RCH OPTIONS
    RECHARGE INPUT WILL BE READ AS ARRAY(S).
    FLOWS WILL BE SAVED TO BUDGET FILE SPECIFIED IN OUTPUT CONTROL
 END OF RCH OPTIONS

 IC -- INITIAL CONDITIONS PACKAGE, VERSION 8, 3/28/2015 INPUT READ FROM UNIT 1006
 # File generated by Flopy version 3.3.5 on 04/28/2022 at 15:58:55.
 PROCESSING GRIDDATA

     INITIAL HEAD =   15.00000    
 END PROCESSING GRIDDATA
 PROCESSING GRIDDATA

                ICELLTYPE = 0

 OPENED ../com_ext/k.txt
 FILE TYPE:OPEN/CLOSE   UNIT 1017   STATUS:OLD                 
 FORMAT:FORMATTED              ACCESS:SEQUENTIAL          
 ACTION:READ                

 K33 not provided.  Assuming K33 = K.
 K22 not provided.  Assuming K22 = K.
 END PROCESSING GRIDDATA

The observation utility is active for "ML"
 # File generated by Flopy version 3.3.5 on 04/28/2022 at 15:58:56.

Processing observation options:

Text output number of digits of precision set to: 10
The PRINT_INPUT option has been specified.


 OBSERVATIONS READ FROM FILE "ml.obs"
 ----------------------------------------------------------------------------------------------------------------------------------------------------------------------------------------------------------------------------
 NAME                                     TYPE                                       TIME         LOCATION DATA                              OUTPUT FILENAME                                                                 
 ----------------------------------------------------------------------------------------------------------------------------------------------------------------------------------------------------------------------------
 PRG                                      CONTINUOUS  HEAD                           ALL TIMES    "1 16523"                                  sim/hds.csv                                                                     
 P8                                       CONTINUOUS  HEAD                           ALL TIMES    "1 10323"                                  sim/hds.csv                                                                     
 P24                                      CONTINUOUS  HEAD                           ALL TIMES    "1 9594"                                   sim/hds.csv                                                                     
 P25                                      CONTINUOUS  HEAD                           ALL TIMES    "1 13966"                                  sim/hds.csv                                                                     
 P32                                      CONTINUOUS  HEAD                           ALL TIMES    "1 15787"                                  sim/hds.csv                                                                     
 P33                                      CONTINUOUS  HEAD                           ALL TIMES    "1 15825"                                  sim/hds.csv                                                                     
 PF                                       CONTINUOUS  HEAD                           ALL TIMES    "1 21048"                                  sim/hds.csv                                                                     
 PH                                       CONTINUOUS  HEAD                           ALL TIMES    "1 20781"                                  sim/hds.csv                                                                     
 PZHM1                                    CONTINUOUS  HEAD                           ALL TIMES    "1 14521"                                  sim/hds.csv                                                                     
 P26                                      CONTINUOUS  HEAD                           ALL TIMES    "1 13141"                                  sim/hds.csv                                                                     
 P27                                      CONTINUOUS  HEAD                           ALL TIMES    "1 8465"                                   sim/hds.csv                                                                     
 P28                                      CONTINUOUS  HEAD                           ALL TIMES    "1 8924"                                   sim/hds.csv                                                                     
 P29                                      CONTINUOUS  HEAD                           ALL TIMES    "1 4524"                                   sim/hds.csv                                                                     
 P30                                      CONTINUOUS  HEAD                           ALL TIMES    "1 5255"                                   sim/hds.csv                                                                     
 R20                                      CONTINUOUS  HEAD                           ALL TIMES    "1 10676"                                  sim/hds.csv                                                                     
 R21                                      CONTINUOUS  HEAD                           ALL TIMES    "1 10403"                                  sim/hds.csv                                                                     
 P34                                      CONTINUOUS  HEAD                           ALL TIMES    "1 15131"                                  sim/hds.csv                                                                     
 P37                                      CONTINUOUS  HEAD                           ALL TIMES    "1 15755"                                  sim/hds.csv                                                                     
 P38                                      CONTINUOUS  HEAD                           ALL TIMES    "1 15045"                                  sim/hds.csv                                                                     
 P39                                      CONTINUOUS  HEAD                           ALL TIMES    "1 9637"                                   sim/hds.csv                                                                     
 P40                                      CONTINUOUS  HEAD                           ALL TIMES    "1 9312"                                   sim/hds.csv                                                                     
 AP1                                      CONTINUOUS  HEAD                           ALL TIMES    "1 9702"                                   sim/hds.csv                                                                     
 RCK1                                     CONTINUOUS  HEAD                           ALL TIMES    "1 15900"                                  sim/hds.csv                                                                     
 RCK2                                     CONTINUOUS  HEAD                           ALL TIMES    "1 15199"                                  sim/hds.csv                                                                     
 P23                                      CONTINUOUS  HEAD                           ALL TIMES    "1 6409"                                   sim/hds.csv                                                                     
 ----------------------------------------------------------------------------------------------------------------------------------------------------------------------------------------------------------------------------


    BINARY GRID INFORMATION WILL BE WRITTEN TO:
      UNIT NUMBER: 1019
      FILE NAME: /srv/common/ptrack/case_study/pst/ml_04/./ml.disv.grb

 OPENED /srv/common/ptrack/case_study/pst/ml_04/./ml.disv.grb
 FILE TYPE:DATA(BINARY)   UNIT 1019   STATUS:REPLACE             
 FORMAT:UNFORMATTED            ACCESS:STREAM              
 ACTION:READWRITE           

      THE LAST TIME STEP WILL BE PRINTED
      THE LAST TIME STEP WILL BE PRINTED
 # File generated by Flopy version 3.3.5 on 04/28/2022 at 15:58:56.

 PROCESSING OC OPTIONS

    BUDGET INFORMATION WILL BE WRITTEN TO:
      UNIT NUMBER: 1020
      FILE NAME: ml.cbc

 OPENED ml.cbc
 FILE TYPE:DATA(BINARY)   UNIT 1020   STATUS:REPLACE             
 FORMAT:UNFORMATTED            ACCESS:STREAM              
 ACTION:READWRITE           

    HEAD INFORMATION WILL BE WRITTEN TO:
      UNIT NUMBER: 1021
      FILE NAME: ml.hds

 OPENED ml.hds
 FILE TYPE:DATA(BINARY)   UNIT 1021   STATUS:REPLACE             
 FORMAT:UNFORMATTED            ACCESS:STREAM              
 ACTION:READWRITE           

 END OF OC OPTIONS

The observation utility is active for "DRN_0"
 # File generated by Flopy version 3.3.5 on 04/28/2022 at 15:58:56.

Processing observation options:



start timestep kper="1" kstp="1" mode="normal"


 BEGIN READING OUTPUT CONTROL FOR STRESS PERIOD 1
      THE LAST TIME STEP WILL BE SAVED
      THE LAST TIME STEP WILL BE SAVED

 END READING OUTPUT CONTROL FOR STRESS PERIOD 1

 OPENED ext/wel_spd_1.txt
 FILE TYPE:OPEN/CLOSE   UNIT 1023   STATUS:OLD                 
 FORMAT:FORMATTED              ACCESS:SEQUENTIAL          
 ACTION:READ                


 OPENED ext/drn_spd_1.txt
 FILE TYPE:OPEN/CLOSE   UNIT 1024   STATUS:OLD                 
 FORMAT:FORMATTED              ACCESS:SEQUENTIAL          
 ACTION:READ                


 OPENED ext/riv_spd_1.txt
 FILE TYPE:OPEN/CLOSE   UNIT 1025   STATUS:OLD                 
 FORMAT:FORMATTED              ACCESS:SEQUENTIAL          
 ACTION:READ                


 OPENED ../com_ext/ghb_spd_1.txt
 FILE TYPE:OPEN/CLOSE   UNIT 1026   STATUS:OLD                 
 FORMAT:FORMATTED              ACCESS:SEQUENTIAL          
 ACTION:READ                


 OPENED ../com_ext/rech_spd_1.txt
 FILE TYPE:OPEN/CLOSE   UNIT 1027   STATUS:OLD                 
 FORMAT:FORMATTED              ACCESS:SEQUENTIAL          
 ACTION:READ                


 SLN_1 INNER ITERATION SUMMARY
 --------------------------------------------------------------------------------------------------------------------------------------
      TOTAL      OUTER      INNER                                                            MAXIMUM                                   
  ITERATION  ITERATION  ITERATION  MAXIMUM CHANGE      MAXIMUM CHANGE MODEL-(CELLID)        RESIDUAL    MAXIMUM RESIDUAL MODEL-(CELLID)
 --------------------------------------------------------------------------------------------------------------------------------------
          1          1          1      -11.761938                    1_GWF-(1,12785)      0.32866575                    1_GWF-(1,11169)
          2          1          2       5.5420463                    1_GWF-(1,26601)     -0.22723508                    1_GWF-(1,11169)
          3          1          3       5.7806095                    1_GWF-(1,26565)     -0.14002292                    1_GWF-(1,11178)
          4          1          4       5.9334871                    1_GWF-(1,26512)      0.16226313                    1_GWF-(1,11178)
          5          1          5       5.6121556                    1_GWF-(1,26611)     -0.12286857                    1_GWF-(1,11180)
          6          1          6       5.9484912                    1_GWF-(1,26649)     -0.11543968                    1_GWF-(1,11157)
          7          1          7       4.8462830                    1_GWF-(1,26622) -6.85132451E-02                    1_GWF-(1,11158)
          8          1          8       3.9209479                    1_GWF-(1,26665) -6.86141089E-02                    1_GWF-(1,11180)
          9          1          9      -3.2502479                    1_GWF-(1,26665)  5.23145813E-02                    1_GWF-(1,11051)
         10          1         10      -2.8521174                    1_GWF-(1,26666) -5.55480129E-02                    1_GWF-(1,11158)
         11          1         11       2.5701207                    1_GWF-(1,26544) -5.90229220E-02                    1_GWF-(1,11180)
         12          1         12      -2.8815265                    1_GWF-(1,26622)  3.96403681E-02                    1_GWF-(1,11058)
         13          1         13      -3.4641890                    1_GWF-(1,26649)  4.32364906E-02                    1_GWF-(1,11180)
         14          1         14      -2.6544662                    1_GWF-(1,26622) -4.09886650E-02                    1_GWF-(1,11180)
         15          1         15      -1.8147225                    1_GWF-(1,26623)  2.85056697E-02                    1_GWF-(1,11026)
         16          1         16       1.3481553                    1_GWF-(1,26623)  4.90279525E-02                    1_GWF-(1,11180)
         17          1         17       1.6411365                    1_GWF-(1,26665) -4.02156483E-02                    1_GWF-(1,11180)
         18          1         18       1.9964217                    1_GWF-(1,26588) -3.43115300E-02                    1_GWF-(1,11194)
         19          1         19      -2.2002084                    1_GWF-(1,26588)  4.02163429E-02                    1_GWF-(1,11180)
         20          1         20      -1.7912024                    1_GWF-(1,26543) -2.51323150E-02                    1_GWF-(1,11104)
         21          1         21      -1.3861892                    1_GWF-(1,26544) -2.99442427E-02                    1_GWF-(1,11194)
         22          1         22      -1.6893856                    1_GWF-(1,26486)  3.27461111E-02                    1_GWF-(1,11180)
         23          1         23      -2.1097289                    1_GWF-(1,26487) -2.65335469E-02                    1_GWF-(1,11106)
         24          1         24      -2.2873954                    1_GWF-(1,26486) -3.01202776E-02                    1_GWF-(1,11194)
         25          1         25       1.9831585                    1_GWF-(1,26420) -3.59143630E-02                    1_GWF-(1,11109)
         26          1         26       2.1690638                    1_GWF-(1,26487)  2.83009760E-02                    1_GWF-(1,11151)
         27          1         27       1.8713106                    1_GWF-(1,26420) -2.81607424E-02                    1_GWF-(1,11101)
         28          1         28       1.2532422                    1_GWF-(1,26487) -3.17143899E-02                    1_GWF-(1,11109)
         29          1         29      0.90860267                    1_GWF-(1,26420)  3.31553134E-02                    1_GWF-(1,11109)
         30          1         30     -0.86676533                    1_GWF-(1,26350)  3.42540641E-02                    1_GWF-(1,11110)
         31          1         31      -1.1840700                    1_GWF-(1,26422)  2.76842273E-02                    1_GWF-(1,11105)
         32          1         32      -1.3066125                    1_GWF-(1,26350)  2.41894849E-02                     1_GWF-(1,5617)
         33          1         33      -1.4261442                    1_GWF-(1,26422)  2.87741727E-02                    1_GWF-(1,11110)
         34          1         34      -1.2179656                    1_GWF-(1,26350)  2.75323736E-02                    1_GWF-(1,11105)
         35          1         35     -0.96822755                    1_GWF-(1,26422) -3.50737003E-02                    1_GWF-(1,11105)
         36          1         36     -0.85260652                    1_GWF-(1,25255) -3.93661988E-02                    1_GWF-(1,11114)
         37          1         37     -0.98858178                    1_GWF-(1,25240)  2.73291346E-02                    1_GWF-(1,11114)
         38          1         38      -1.0766457                    1_GWF-(1,25322)  3.20149143E-02                    1_GWF-(1,11103)
         39          1         39      -1.1770602                    1_GWF-(1,25455) -3.60233141E-02                    1_GWF-(1,11096)
         40          1         40      -1.1230813                    1_GWF-(1,20223)  3.72884076E-02                    1_GWF-(1,15107)
         41          1         41      -1.1621465                    1_GWF-(1,21381)  3.85161604E-02                    1_GWF-(1,11093)
         42          1         42      -1.3989268                    1_GWF-(1,21458) -4.20010996E-02                    1_GWF-(1,11093)
         43          1         43      -1.7384814                    1_GWF-(1,21462) -4.74655076E-02                    1_GWF-(1,11094)
         44          1         44      -1.8893658                    1_GWF-(1,21417)  4.91764096E-02                    1_GWF-(1,15107)
         45          1         45      -1.5565444                    1_GWF-(1,21437)  3.54514646E-02                    1_GWF-(1,11091)
         46          1         46      -1.3075843                    1_GWF-(1,20575)  3.17012929E-02                    1_GWF-(1,11093)
         47          1         47      -1.2867423                    1_GWF-(1,20920)  2.93374058E-02                    1_GWF-(1,11094)
         48          1         48      -1.2256177                    1_GWF-(1,26218) -2.59515075E-02                    1_GWF-(1,11094)
         49          1         49      -1.2274452                    1_GWF-(1,26217) -2.43163288E-02                    1_GWF-(1,11091)
         50          1         50      -1.4112832                    1_GWF-(1,26218)  2.06251673E-02                    1_GWF-(1,14801)
         51          2          1      -20.563674                    1_GWF-(1,26519) -8.67609936E-02                    1_GWF-(1,26519)
         52          2          2      -7.9215072                    1_GWF-(1,26569) -3.42138749E-02                    1_GWF-(1,26516)
         53          2          3      -4.0657532                    1_GWF-(1,26637)  2.12783705E-02                    1_GWF-(1,26516)
         54          2          4      -4.0152906                    1_GWF-(1,26665) -1.49971650E-02                    1_GWF-(1,26519)
         55          2          5      -2.6656402                    1_GWF-(1,26648)  1.27840542E-02                    1_GWF-(1,14799)
         56          2          6      -1.9756864                    1_GWF-(1,26586)  1.32155764E-02                    1_GWF-(1,14801)
         57          2          7      -1.7676973                    1_GWF-(1,26543)  1.16999519E-02                    1_GWF-(1,14799)
         58          2          8      -1.6394227                    1_GWF-(1,26486)  1.23281216E-02                    1_GWF-(1,14801)
         59          2          9      -1.4039104                    1_GWF-(1,26487)  1.06785248E-02                    1_GWF-(1,14799)
         60          2         10      -1.3666724                    1_GWF-(1,26218)  1.03964986E-02                    1_GWF-(1,14801)
         61          2         11      -1.3800141                    1_GWF-(1,26422)  9.32644789E-03                    1_GWF-(1,14801)
         62          2         12      -1.1289694                    1_GWF-(1,26217)  8.25242374E-03                    1_GWF-(1,14799)
         63          2         13      -1.0398758                    1_GWF-(1,26218)  8.52825450E-03                    1_GWF-(1,14801)
         64          2         14     -0.68308261                    1_GWF-(1,26649)  7.71435451E-03                    1_GWF-(1,14801)
         65          2         15     -0.62436248                    1_GWF-(1,26622)  7.51485019E-03                    1_GWF-(1,14801)
         66          2         16      0.96034620                    1_GWF-(1,26420)  8.03169645E-03                    1_GWF-(1,14801)
         67          2         17       1.2502511                    1_GWF-(1,26350)  7.45978828E-03                    1_GWF-(1,14799)
         68          2         18      0.96047897                    1_GWF-(1,26217)  7.89909438E-03                    1_GWF-(1,14801)
         69          2         19      0.70355322                    1_GWF-(1,26218)  7.96604128E-03                    1_GWF-(1,14801)
         70          2         20      0.51752510                    1_GWF-(1,26486)  7.58722100E-03                    1_GWF-(1,14801)
         71          2         21      0.83194497                    1_GWF-(1,26588)  8.10310208E-03                    1_GWF-(1,14801)
         72          2         22      0.93051905                    1_GWF-(1,26543)  7.73603824E-03                    1_GWF-(1,14801)
         73          2         23      0.59905814                    1_GWF-(1,25712)  8.07542075E-03                    1_GWF-(1,14801)
         74          2         24     -0.63155931                    1_GWF-(1,26422)  9.28432259E-03                    1_GWF-(1,14801)
         75          2         25     -0.87113284                    1_GWF-(1,26486)  9.36230635E-03                    1_GWF-(1,14799)
         76          2         26     -0.95513706                    1_GWF-(1,26487)  1.00859987E-02                    1_GWF-(1,14801)
         77          2         27     -0.61102407                    1_GWF-(1,26420)  1.03316901E-02                    1_GWF-(1,14801)
         78          2         28      0.34362939                    1_GWF-(1,25453)  1.00649686E-02                    1_GWF-(1,14799)
         79          2         29      0.40337557                    1_GWF-(1,26487)  1.09249287E-02                    1_GWF-(1,14801)
         80          2         30      0.41895008                    1_GWF-(1,26420)  1.04312115E-02                    1_GWF-(1,14799)
         81          2         31      0.36333152                    1_GWF-(1,25266)  1.11139945E-02                    1_GWF-(1,14801)
         82          2         32     -0.33489327                    1_GWF-(1,26157)  1.06426190E-02                    1_GWF-(1,14799)
         83          2         33     -0.30596701                    1_GWF-(1,26150)  1.03653501E-02                    1_GWF-(1,14801)
         84          2         34      0.26472010                    1_GWF-(1,26586)  8.84709928E-03                    1_GWF-(1,14799)
         85          2         35      0.33771392                    1_GWF-(1,26623)  8.13314020E-03                    1_GWF-(1,14801)
         86          2         36      0.27190438                    1_GWF-(1,26649)  6.50525010E-03                    1_GWF-(1,14799)
         87          2         37     -0.31767658                    1_GWF-(1,26350)  6.56470024E-03                    1_GWF-(1,14801)
         88          2         38     -0.30756367                    1_GWF-(1,26422)  6.23406793E-03                    1_GWF-(1,14801)
         89          2         39     -0.34986521                    1_GWF-(1,26649)  6.56336549E-03                    1_GWF-(1,14799)
         90          2         40     -0.38903481                    1_GWF-(1,26422)  7.10827331E-03                    1_GWF-(1,14801)
         91          2         41      0.28134272                    1_GWF-(1,26422)  7.05031416E-03                    1_GWF-(1,14799)
         92          2         42      0.32347462                    1_GWF-(1,26350)  7.76765717E-03                    1_GWF-(1,14801)
         93          2         43     -0.29999620                    1_GWF-(1,26350)  7.21358456E-03                    1_GWF-(1,14799)
         94          2         44      0.33866968                    1_GWF-(1,21281)  7.53992165E-03                    1_GWF-(1,14801)
         95          2         45      0.40686918                    1_GWF-(1,21264)  6.65895894E-03                    1_GWF-(1,26625)
         96          2         46      0.43221767                    1_GWF-(1,20917)  4.55020791E-03                    1_GWF-(1,14801)
         97          2         47      0.36748623                    1_GWF-(1,20232) -3.42430358E-03                    1_GWF-(1,15940)
         98          2         48     -0.32113308                    1_GWF-(1,26665)  7.71515341E-03                    1_GWF-(1,26625)
         99          2         49     -0.34363501                    1_GWF-(1,21377) -6.50225329E-03                    1_GWF-(1,26625)
        100          2         50     -0.43170324                    1_GWF-(1,21349)  6.38949690E-03                    1_GWF-(1,15109)
        101          3          1     -0.97914859                    1_GWF-(1,16214) -4.14189534E-03                    1_GWF-(1,11460)
        102          3          2     -0.56928807                    1_GWF-(1,16200)  3.63665121E-03                    1_GWF-(1,15109)
        103          3          3     -0.37898293                    1_GWF-(1,16233)  5.08842361E-03                    1_GWF-(1,15108)
        104          3          4     -0.32610684                    1_GWF-(1,16536) -5.07758701E-03                    1_GWF-(1,15108)
        105          3          5     -0.27020727                    1_GWF-(1,21263) -3.80000630E-03                    1_GWF-(1,15109)
        106          3          6     -0.27064503                    1_GWF-(1,21260) -3.03254740E-03                    1_GWF-(1,15108)
        107          3          7      0.23974463                    1_GWF-(1,16538)  2.45634106E-03                    1_GWF-(1,15107)
        108          3          8      0.17059691                    1_GWF-(1,16545)  2.24724419E-03                    1_GWF-(1,11460)
        109          3          9     -0.16882354                    1_GWF-(1,16537)  2.03329082E-03                    1_GWF-(1,14799)
        110          3         10     -0.20999227                    1_GWF-(1,16542)  2.69077693E-03                    1_GWF-(1,14801)
        111          3         11     -0.19178984                    1_GWF-(1,16569)  3.09865199E-03                    1_GWF-(1,14799)
        112          3         12      0.18125211                    1_GWF-(1,26350)  2.83513668E-03                    1_GWF-(1,15108)
        113          3         13      0.21663608                    1_GWF-(1,26422) -2.60668359E-03                    1_GWF-(1,15108)
        114          3         14      0.23745112                    1_GWF-(1,26350)  2.14042342E-03                    1_GWF-(1,15108)
        115          3         15      0.19862362                    1_GWF-(1,26422)  1.64150123E-03                    1_GWF-(1,14801)
        116          3         16     -0.13235326                    1_GWF-(1,26422)  1.63038415E-03                    1_GWF-(1,14799)
        117          3         17     -0.10881262                    1_GWF-(1,26649)  1.89407780E-03                    1_GWF-(1,15108)
        118          3         18      0.14542831                    1_GWF-(1,11576)  2.35559225E-03                    1_GWF-(1,14936)
        119          3         19     -0.11639287                    1_GWF-(1,26586)  3.60133382E-03                    1_GWF-(1,14801)
        120          3         20     -0.11966364                    1_GWF-(1,22396)  4.57717235E-03                    1_GWF-(1,14799)
        121          3         21     -0.11517248                    1_GWF-(1,16803)  4.08096431E-03                    1_GWF-(1,14801)
        122          3         22     -0.11885110                    1_GWF-(1,11714)  3.41302561E-03                    1_GWF-(1,14799)
        123          3         23     -0.10635606                    1_GWF-(1,25444)  2.93903039E-03                    1_GWF-(1,15107)
        124          3         24     -0.10845096                    1_GWF-(1,25492)  2.58170794E-03                    1_GWF-(1,14801)
        125          3         25      0.17055436                    1_GWF-(1,26487)  2.32742336E-03                    1_GWF-(1,14801)
        126          3         26      0.20062083                    1_GWF-(1,26420)  1.85398100E-03                    1_GWF-(1,14801)
        127          3         27      0.21060085                    1_GWF-(1,26487)  2.10601055E-03                    1_GWF-(1,15109)
        128          3         28      0.13952522                    1_GWF-(1,26420)  2.79028863E-03                    1_GWF-(1,15107)
        129          3         29     -0.11829751                    1_GWF-(1,26543) -2.08541675E-03                    1_GWF-(1,15107)
        130          3         30     -0.16765222                    1_GWF-(1,26588)  1.73100580E-03                    1_GWF-(1,15107)
        131          3         31     -0.19137162                    1_GWF-(1,26543)  2.09073294E-03                    1_GWF-(1,14801)
        132          3         32     -0.17003339                    1_GWF-(1,26588)  2.13058273E-03                    1_GWF-(1,14799)
        133          3         33     -0.14041959                    1_GWF-(1,26543)  2.86329867E-03                    1_GWF-(1,15107)
        134          3         34     -0.14083372                    1_GWF-(1,26350) -3.21393758E-03                    1_GWF-(1,15107)
        135          3         35     -0.14567161                    1_GWF-(1,21418)  2.63485419E-03                    1_GWF-(1,15107)
        136          3         36      0.15147394                    1_GWF-(1,26622)  1.55757591E-03                    1_GWF-(1,10342)
        137          3         37      0.14544585                    1_GWF-(1,26623)  1.96248607E-03                    1_GWF-(1,14938)
        138          3         38      0.14942880                    1_GWF-(1,26622)  3.37397553E-03                    1_GWF-(1,15107)
        139          3         39      0.12787071                    1_GWF-(1,26649)  2.05625705E-03                    1_GWF-(1,14938)
        140          3         40     -0.13565831                    1_GWF-(1,26649)  2.09335651E-03                    1_GWF-(1,14801)
        141          3         41      0.15239960                    1_GWF-(1,26665)  2.35744870E-03                    1_GWF-(1,14801)
        142          3         42     -0.18193191                    1_GWF-(1,26665) -3.06241773E-03                    1_GWF-(1,15107)
        143          3         43     -0.12662308                    1_GWF-(1,26666)  3.27594531E-03                    1_GWF-(1,15107)
        144          3         44 -9.30634414E-02                    1_GWF-(1,26665)  2.09059143E-03                    1_GWF-(1,14938)
        145          3         45      0.10453208                    1_GWF-(1,26587)  3.14471849E-03                    1_GWF-(1,15107)
        146          3         46      0.10725221                    1_GWF-(1,26648)  1.56541826E-03                    1_GWF-(1,14938)
        147          3         47      0.11286501                    1_GWF-(1,26649)  1.66779945E-03                    1_GWF-(1,15109)
        148          3         48     -0.10260552                    1_GWF-(1,26218)  2.06094064E-03                    1_GWF-(1,15108)
        149          3         49 -9.41890531E-02                    1_GWF-(1,26217)  2.63297509E-03                    1_GWF-(1,14801)
        150          3         50     -0.12027258                    1_GWF-(1,26649)  3.72056012E-03                    1_GWF-(1,15107)
        151          4          1  8.26952232E-02                    1_GWF-(1,26218)  2.59604503E-03                    1_GWF-(1,14938)
        152          4          2  7.71326711E-02                    1_GWF-(1,26217)  3.05771199E-03                    1_GWF-(1,15107)
        153          4          3 -8.33154752E-02                    1_GWF-(1,26217) -2.07268811E-03                    1_GWF-(1,15107)
        154          4          4 -8.80333189E-02                    1_GWF-(1,26218)  2.21954926E-03                    1_GWF-(1,15107)
        155          4          5 -7.02619886E-02                    1_GWF-(1,26217)  1.24048395E-03                    1_GWF-(1,14938)
        156          4          6 -6.78761774E-02                    1_GWF-(1,26218)  8.18897865E-04                    1_GWF-(1,10342)
        157          4          7  7.79156553E-02                    1_GWF-(1,26665)  8.64640191E-04                    1_GWF-(1,10342)
        158          4          8  6.30243495E-02                    1_GWF-(1,26647)  1.14215747E-03                    1_GWF-(1,14801)
        159          4          9  8.64965011E-02                    1_GWF-(1,26665)  1.24595429E-03                    1_GWF-(1,14801)
        160          4         10 -8.93846829E-02                    1_GWF-(1,26665)  1.22422043E-03                    1_GWF-(1,14799)
        161          4         11  8.29751007E-02                    1_GWF-(1,26665)  7.56555498E-04                    1_GWF-(1,14801)
        162          4         12 -7.70798585E-02                    1_GWF-(1,26649)  1.25131558E-03                    1_GWF-(1,15107)
        163          4         13 -7.67303924E-02                    1_GWF-(1,26622)  1.18468976E-03                    1_GWF-(1,14938)
        164          4         14 -6.99492566E-02                    1_GWF-(1,26649)  1.04362112E-03                    1_GWF-(1,15107)
        165          4         15 -6.99208964E-02                    1_GWF-(1,26622)  7.71238928E-04                    1_GWF-(1,10342)
        166          4         16  6.80682518E-02                    1_GWF-(1,21411)  6.58269411E-04                    1_GWF-(1,10342)
        167          4         17  6.59642824E-02                    1_GWF-(1,21405)  1.11281950E-03                    1_GWF-(1,15107)
        168          4         18  5.46212097E-02                    1_GWF-(1,24704)  1.20873047E-03                    1_GWF-(1,14799)
        169          4         19  6.10111461E-02                    1_GWF-(1,26588)  1.32549687E-03                    1_GWF-(1,14801)
        170          4         20  6.01023684E-02                    1_GWF-(1,26543)  1.08970288E-03                    1_GWF-(1,14799)
        171          4         21  5.57668580E-02                    1_GWF-(1,26588)  7.45167388E-04                    1_GWF-(1,14801)
        172          4         22 -4.80149631E-02                    1_GWF-(1,26487)  1.22343548E-03                    1_GWF-(1,15107)
        173          4         23 -4.81138896E-02                    1_GWF-(1,26486)  1.23666318E-03                    1_GWF-(1,14938)
        174          4         24 -5.07492769E-02                    1_GWF-(1,26487)  1.27877990E-03                    1_GWF-(1,15107)
        175          4         25  5.88859716E-02                    1_GWF-(1,26487)  5.73721380E-04                    1_GWF-(1,14799)
        176          4         26  6.25912884E-02                    1_GWF-(1,26420)  7.48651818E-04                    1_GWF-(1,14938)
        177          4         27  4.55996037E-02                    1_GWF-(1,26487)  1.60112748E-03                    1_GWF-(1,15107)
        178          4         28  3.28643584E-02                    1_GWF-(1,26420) -1.31926014E-03                    1_GWF-(1,15107)
        179          4         29  3.70857654E-02                    1_GWF-(1,26543)  2.05601975E-03                    1_GWF-(1,15107)
        180          4         30  3.78491807E-02                    1_GWF-(1,26586)  1.43351410E-03                    1_GWF-(1,14938)
        181          4         31  3.85954074E-02                    1_GWF-(1,26623)  1.71368791E-03                    1_GWF-(1,15107)
        182          4         32  3.42511805E-02                     1_GWF-(1,8442) -1.43087010E-03                    1_GWF-(1,15107)
        183          4         33  2.38503987E-02                     1_GWF-(1,8212)  1.96283369E-03                    1_GWF-(1,15107)
        184          4         34  2.68673291E-02                    1_GWF-(1,26350)  9.95325685E-04                    1_GWF-(1,14938)
        185          4         35  3.31453839E-02                    1_GWF-(1,26422)  7.16677090E-04                    1_GWF-(1,14798)
        186          4         36 -3.64183881E-02                    1_GWF-(1,26422)  6.22231634E-04                    1_GWF-(1,14801)
        187          4         37 -4.43574047E-02                    1_GWF-(1,26350)  8.38970030E-04                    1_GWF-(1,14801)
        188          4         38 -4.74008441E-02                    1_GWF-(1,26422)  1.19643456E-03                    1_GWF-(1,15107)
        189          4         39 -4.92313853E-02                    1_GWF-(1,26350) -1.10953158E-03                    1_GWF-(1,15107)
        190          4         40 -5.19539646E-02                    1_GWF-(1,26422)  1.31258122E-03                    1_GWF-(1,15107)
        191          4         41 -4.00615404E-02                    1_GWF-(1,26350)  7.18035521E-04                    1_GWF-(1,15022)
        192          4         42 -2.90759922E-02                    1_GWF-(1,20575)  8.42521912E-04                    1_GWF-(1,15107)
        193          4         43 -2.34096076E-02                    1_GWF-(1,16545)  4.17895367E-04                    1_GWF-(1,10342)
        194          4         44 -2.77487943E-02                    1_GWF-(1,16538)  5.62585251E-04                    1_GWF-(1,15109)
        195          4         45 -2.89188065E-02                    1_GWF-(1,16237) -4.32282508E-04                    1_GWF-(1,15109)
        196          4         46 -2.44389354E-02                    1_GWF-(1,16230) -5.71530196E-04                    1_GWF-(1,15107)
        197          4         47  3.11483887E-02                    1_GWF-(1,16536)  6.32223630E-04                    1_GWF-(1,14801)
        198          4         48  3.71694044E-02                    1_GWF-(1,16192)  6.98720460E-04                    1_GWF-(1,14799)
        199          4         49  4.28611889E-02                    1_GWF-(1,16200)  9.92585898E-04                    1_GWF-(1,15107)
        200          4         50  3.75992729E-02                    1_GWF-(1,14463) -2.03097021E-03                    1_GWF-(1,15107)
        201          5          1 -5.41684584E-02                    1_GWF-(1,16203)  1.19770563E-03                    1_GWF-(1,15107)
        202          5          2 -3.19251571E-02                    1_GWF-(1,11421) -1.31206983E-03                    1_GWF-(1,15107)
        203          5          3 -2.97058600E-02                    1_GWF-(1,16236)  1.28679642E-03                    1_GWF-(1,15107)
        204          5          4 -2.70581924E-02                    1_GWF-(1,26422) -8.03230596E-04                    1_GWF-(1,15107)
        205          5          5 -2.64515904E-02                    1_GWF-(1,20575)  5.58075787E-04                    1_GWF-(1,15107)
        206          5          6 -2.05794663E-02                    1_GWF-(1,26486) -3.72512868E-04                    1_GWF-(1,15107)
        207          5          7 -1.61634357E-02                    1_GWF-(1,26543)  3.23348227E-04                    1_GWF-(1,14801)
        208          5          8 -1.44532538E-02                    1_GWF-(1,19052)  4.46695820E-04                    1_GWF-(1,14798)
        209          5          9  1.91450527E-02                    1_GWF-(1,26422)  3.73344455E-04                    1_GWF-(1,14938)
        210          5         10  2.04551777E-02                    1_GWF-(1,26350)  7.23321098E-04                    1_GWF-(1,15107)
        211          5         11  2.14391268E-02                    1_GWF-(1,26422) -6.32914162E-04                    1_GWF-(1,15107)
        212          5         12  2.13743120E-02                    1_GWF-(1,26350)  8.86263863E-04                    1_GWF-(1,15107)
        213          5         13  2.41671054E-02                    1_GWF-(1,26422)  5.53459334E-04                    1_GWF-(1,14938)
        214          5         14  2.26578985E-02                    1_GWF-(1,26544)  5.19160117E-04                    1_GWF-(1,15107)
        215          5         15  2.24963940E-02                    1_GWF-(1,26486)  4.06436551E-04                    1_GWF-(1,14798)
        216          5         16  1.82383416E-02                    1_GWF-(1,26649)  3.93603656E-04                    1_GWF-(1,14799)
        217          5         17  1.99348033E-02                    1_GWF-(1,26486)  6.86926257E-04                    1_GWF-(1,15107)
        218          5         18  1.48290975E-02                    1_GWF-(1,26487) -3.42797148E-04                    1_GWF-(1,15107)
        219          5         19 -1.81740823E-02                    1_GWF-(1,26588)  2.74690359E-04                    1_GWF-(1,14799)
        220          5         20 -1.53725862E-02                    1_GWF-(1,26586)  5.61206205E-04                    1_GWF-(1,15107)
        221          5         21 -1.81228589E-02                    1_GWF-(1,26623)  5.90953427E-04                    1_GWF-(1,14938)
        222          5         22 -1.60142166E-02                    1_GWF-(1,26586)  8.61447336E-04                    1_GWF-(1,15107)
        223          5         23 -1.33975801E-02                    1_GWF-(1,25279) -7.67296049E-04                    1_GWF-(1,15107)
        224          5         24 -1.12859250E-02                    1_GWF-(1,25352)  8.95768876E-04                    1_GWF-(1,15107)
        225          5         25 -1.26854430E-02                    1_GWF-(1,26218) -7.26085553E-04                    1_GWF-(1,15107)
        226          5         26 -1.47109969E-02                    1_GWF-(1,26487)  5.58410963E-04                    1_GWF-(1,15107)
        227          5         27  1.71900220E-02                    1_GWF-(1,26622)  3.62355526E-04                    1_GWF-(1,14801)
        228          5         28  1.57311707E-02                    1_GWF-(1,26649)  3.79524693E-04                    1_GWF-(1,14799)
        229          5         29 -1.28274639E-02                    1_GWF-(1,26649)  5.10365661E-04                    1_GWF-(1,15107)
        230          5         30 -1.33973795E-02                    1_GWF-(1,24961) -4.79988046E-04                    1_GWF-(1,15107)
        231          5         31 -1.38556257E-02                    1_GWF-(1,24957)  6.06069947E-04                    1_GWF-(1,15107)
        232          5         32 -1.52073316E-02                    1_GWF-(1,24675)  3.51711252E-04                    1_GWF-(1,14799)
        233          5         33 -1.70378331E-02                    1_GWF-(1,24702)  2.88960216E-04                    1_GWF-(1,15107)
        234          5         34 -1.62938290E-02                    1_GWF-(1,24701)  1.58188763E-04                    1_GWF-(1,14800)
        235          5         35  1.47957683E-02                    1_GWF-(1,26543) -2.10346874E-04                    1_GWF-(1,15107)
        236          5         36  1.80629730E-02                    1_GWF-(1,26588) -2.55691733E-04                    1_GWF-(1,14938)
        237          5         37 -1.58971129E-02                    1_GWF-(1,21420) -2.77877996E-04                    1_GWF-(1,15107)
        238          5         38 -1.52126231E-02                    1_GWF-(1,24588)  3.07703507E-04                    1_GWF-(1,15107)
        239          5         39 -1.24917185E-02                    1_GWF-(1,24315)  2.01140949E-04                    1_GWF-(1,14798)
        240          5         40 -1.56928592E-02                    1_GWF-(1,26665) -2.02563840E-04                    1_GWF-(1,15107)
        241          5         41 -1.45803518E-02                    1_GWF-(1,26666)  2.51784080E-04                    1_GWF-(1,15107)
        242          5         42 -1.49565220E-02                    1_GWF-(1,26665)  2.85675239E-04                    1_GWF-(1,14801)
        243          5         43 -1.07349242E-02                    1_GWF-(1,26666)  2.16474658E-04                    1_GWF-(1,14799)
        244          5         44 -1.00668243E-02                    1_GWF-(1,26665)  1.37418360E-04                    1_GWF-(1,15107)
        245          5         45  1.18615421E-02                    1_GWF-(1,26218)  1.94248345E-04                    1_GWF-(1,14938)
        246          5         46  9.65268332E-03                    1_GWF-(1,26217)  3.85824958E-04                    1_GWF-(1,15107)
        247          5         47 -1.08293295E-02                    1_GWF-(1,26217) -3.46847265E-04                    1_GWF-(1,15107)
        248          5         48 -1.10921492E-02                    1_GWF-(1,26218)  4.48842497E-04                    1_GWF-(1,15107)
        249          5         49  9.67978116E-03                    1_GWF-(1,26218)  2.91978636E-04                    1_GWF-(1,14938)
        250          5         50  9.90830362E-03                    1_GWF-(1,26217)  3.66103688E-04                    1_GWF-(1,15107)
        251          6          1 -7.35373376E-03                    1_GWF-(1,11459) -7.93050863E-04                    1_GWF-(1,11459)
        252          6          2  7.62872156E-03                    1_GWF-(1,26217)  4.64833537E-04                    1_GWF-(1,15107)
        253          6          3  1.31709123E-02                    1_GWF-(1,26218)  8.02416542E-04                    1_GWF-(1,11459)
        254          6          4  1.05605552E-02                    1_GWF-(1,26217) -4.92777805E-04                    1_GWF-(1,11459)
        255          6          5  8.99136997E-03                    1_GWF-(1,21678)  1.15927834E-04                    1_GWF-(1,14938)
        256          6          6 -9.38580638E-03                    1_GWF-(1,26218)  2.37614374E-04                    1_GWF-(1,11459)
        257          6          7  7.78049517E-03                    1_GWF-(1,21671) -2.91961901E-04                    1_GWF-(1,11459)
        258          6          8  7.61366093E-03                    1_GWF-(1,21709)  1.35118311E-04                    1_GWF-(1,11459)
        259          6          9  9.55588696E-03                    1_GWF-(1,26665)  2.10822535E-04                    1_GWF-(1,15107)
        260          6         10  9.81733642E-03                    1_GWF-(1,26666) -1.80752436E-04                    1_GWF-(1,11459)
        261          6         11  9.83857424E-03                    1_GWF-(1,26665)  1.03189570E-04                    1_GWF-(1,14798)
        262          6         12  8.05563909E-03                    1_GWF-(1,24619)  2.03809894E-04                    1_GWF-(1,15107)
        263          6         13  8.84355163E-03                    1_GWF-(1,24313) -1.86604802E-04                    1_GWF-(1,15107)
        264          6         14  8.71645231E-03                    1_GWF-(1,21421)  1.84914784E-04                    1_GWF-(1,15107)
        265          6         15 -8.43881905E-03                    1_GWF-(1,26588) -1.20104005E-04                    1_GWF-(1,15107)
        266          6         16  7.04436881E-03                    1_GWF-(1,21412) -9.99888218E-05                    1_GWF-(1,11459)
        267          6         17  7.59615937E-03                    1_GWF-(1,24700)  1.51866684E-04                    1_GWF-(1,15107)
        268          6         18  6.83804597E-03                    1_GWF-(1,24702)  1.74104576E-04                    1_GWF-(1,14799)
        269          6         19  6.26171816E-03                    1_GWF-(1,24678)  2.94148389E-04                    1_GWF-(1,15107)
        270          6         20  5.62919984E-03                    1_GWF-(1,25036) -2.01482063E-04                    1_GWF-(1,15107)
        271          6         21  5.49315896E-03                    1_GWF-(1,24961)  2.22488503E-04                    1_GWF-(1,15107)
        272          6         22 -4.47646700E-03                    1_GWF-(1,26487) -1.46410622E-04                    1_GWF-(1,15107)
        273          6         23 -5.74539843E-03                    1_GWF-(1,26649)  1.03729057E-04                    1_GWF-(1,14801)
        274          6         24 -6.30958414E-03                    1_GWF-(1,26622)  1.85924222E-04                    1_GWF-(1,15107)
        275          6         25  5.84181219E-03                    1_GWF-(1,26487) -2.14976266E-04                    1_GWF-(1,15107)
        276          6         26 -4.41176343E-03                     1_GWF-(1,8335)  2.59923141E-04                    1_GWF-(1,15107)
        277          6         27  3.88109133E-03                    1_GWF-(1,11635) -2.24396608E-04                    1_GWF-(1,15107)
        278          6         28  3.79658247E-03                    1_GWF-(1,26623)  2.77510764E-04                    1_GWF-(1,15107)
        279          6         29  4.43465567E-03                    1_GWF-(1,26586)  1.49677851E-04                    1_GWF-(1,14938)
        280          6         30  4.33072248E-03                    1_GWF-(1,26623)  1.53099418E-04                    1_GWF-(1,15107)
        281          6         31  4.01390303E-03                     1_GWF-(1,8040)  8.08993491E-05                    1_GWF-(1,14799)
        282          6         32 -4.66571072E-03                    1_GWF-(1,26350)  1.02197628E-04                    1_GWF-(1,14801)
        283          6         33 -4.90846777E-03                    1_GWF-(1,26422)  1.17282169E-04                    1_GWF-(1,15107)
        284          6         34  4.64979285E-03                    1_GWF-(1,26422) -1.23035603E-04                    1_GWF-(1,15107)
        285          6         35 -5.28983382E-03                    1_GWF-(1,26588)  1.24699929E-04                    1_GWF-(1,15107)
        286          6         36 -5.38632529E-03                    1_GWF-(1,26589)  8.98061596E-05                    1_GWF-(1,14801)
        287          6         37 -5.82139039E-03                    1_GWF-(1,26588)  7.19155640E-05                    1_GWF-(1,14799)
        288          6         38 -6.15443807E-03                    1_GWF-(1,26486)  1.45026819E-04                    1_GWF-(1,15107)
        289          6         39 -4.92314608E-03                    1_GWF-(1,26544)  1.11349651E-04                    1_GWF-(1,14938)
        290          6         40 -4.38434531E-03                    1_GWF-(1,26486)  1.22673103E-04                    1_GWF-(1,15107)
        291          6         41 -4.15946281E-03                    1_GWF-(1,26350)  5.21805886E-05                    1_GWF-(1,15022)
        292          6         42 -3.52506400E-03                    1_GWF-(1,20575)  7.33212197E-05                    1_GWF-(1,14801)
        293          6         43  2.41381970E-03                    1_GWF-(1,26586)  5.16376184E-05                    1_GWF-(1,14798)
        294          6         44 -2.51117371E-03                    1_GWF-(1,16540) -6.46425933E-05                    1_GWF-(1,15107)
        295          6         45  2.95724429E-03                    1_GWF-(1,26486)  9.85640072E-05                    1_GWF-(1,15107)
        296          6         46  3.01617460E-03                    1_GWF-(1,26350) -1.50471890E-04                    1_GWF-(1,15107)
        297          6         47  3.83201661E-03                    1_GWF-(1,16538)  1.78412888E-04                    1_GWF-(1,15107)
        298          6         48  4.18644609E-03                    1_GWF-(1,16194) -1.39595893E-04                    1_GWF-(1,15107)
        299          6         49  3.98703952E-03                    1_GWF-(1,16113)  1.66279672E-04                    1_GWF-(1,15107)
        300          6         50  3.08369207E-03                    1_GWF-(1,16114) -2.26507792E-04                    1_GWF-(1,15107)
        301          7          1 -3.53096701E-03                    1_GWF-(1,11426)  1.53195692E-04                    1_GWF-(1,15107)
        302          7          2 -3.69315232E-03                    1_GWF-(1,16229) -1.17475595E-04                    1_GWF-(1,15107)
        303          7          3 -3.87357846E-03                    1_GWF-(1,16236)  1.39976604E-04                    1_GWF-(1,15107)
        304          7          4 -3.28455261E-03                    1_GWF-(1,26422) -8.99134003E-05                    1_GWF-(1,15107)
        305          7          5 -3.14506202E-03                    1_GWF-(1,20575)  5.27781811E-05                    1_GWF-(1,15107)
        306          7          6 -2.68269521E-03                    1_GWF-(1,20228)  4.07959036E-05                    1_GWF-(1,14802)
        307          7          7 -1.72902576E-03                    1_GWF-(1,19016)  3.97703728E-05                    1_GWF-(1,14801)
        308          7          8 -1.97687926E-03                    1_GWF-(1,19052)  5.35818803E-05                    1_GWF-(1,14798)
        309          7          9  2.37204643E-03                    1_GWF-(1,26422)  4.34507452E-05                    1_GWF-(1,14938)
        310          7         10  2.75052919E-03                    1_GWF-(1,26350)  9.80598964E-05                    1_GWF-(1,15107)
        311          7         11  2.95089499E-03                    1_GWF-(1,26486)  7.78804464E-05                    1_GWF-(1,14938)
        312          7         12  2.98286767E-03                    1_GWF-(1,26544)  8.27724342E-05                    1_GWF-(1,15107)
        313          7         13  3.45346475E-03                    1_GWF-(1,26486)  3.06589234E-05                    1_GWF-(1,14802)
        314          7         14  3.13577258E-03                    1_GWF-(1,26588)  4.17185353E-05                    1_GWF-(1,14801)
        315          7         15  2.82781406E-03                    1_GWF-(1,26589)  7.12064974E-05                    1_GWF-(1,15107)
        316          7         16  2.59932292E-03                    1_GWF-(1,26588) -6.49491873E-05                    1_GWF-(1,15107)
        317          7         17 -2.40738320E-03                    1_GWF-(1,26422)  4.73796113E-05                    1_GWF-(1,15107)
        318          7         18  2.19954613E-03                    1_GWF-(1,26422)  3.55685927E-05                    1_GWF-(1,14801)
        319          7         19  1.95810255E-03                    1_GWF-(1,26350) -4.77997418E-05                    1_GWF-(1,15107)
        320          7         20 -1.72689304E-03                    1_GWF-(1,26544)  7.40958371E-05                    1_GWF-(1,15107)
        321          7         21 -1.92212417E-03                    1_GWF-(1,26623)  6.70359253E-05                    1_GWF-(1,14938)
        322          7         22 -1.95162860E-03                    1_GWF-(1,26589)  1.12339452E-04                    1_GWF-(1,15107)
        323          7         23 -1.82408385E-03                    1_GWF-(1,26588) -8.02746043E-05                    1_GWF-(1,15107)
        324          7         24 -1.43906175E-03                    1_GWF-(1,26487)  7.13593623E-05                    1_GWF-(1,15107)
        325          7         25 -2.23451171E-03                    1_GWF-(1,26420)  2.64827133E-05                    1_GWF-(1,14798)
        326          7         26 -2.58209450E-03                    1_GWF-(1,26487)  2.83918379E-05                    1_GWF-(1,14799)
        327          7         27 -2.30534813E-03                    1_GWF-(1,26420)  8.04686840E-05                    1_GWF-(1,15107)
        328          7         28 -1.57326254E-03                    1_GWF-(1,25116) -5.77711362E-05                    1_GWF-(1,15107)
        329          7         29 -1.58860464E-03                    1_GWF-(1,24429)  5.54744382E-05                    1_GWF-(1,15107)
        330          7         30 -1.70952213E-03                    1_GWF-(1,24961) -2.87444872E-05                    1_GWF-(1,15107)
        331          7         31 -2.03866349E-03                    1_GWF-(1,26649)  3.76151646E-05                    1_GWF-(1,14801)
        332          7         32 -1.93547753E-03                    1_GWF-(1,26622)  5.79427934E-05                    1_GWF-(1,15107)
        333          7         33 -2.05924464E-03                    1_GWF-(1,24678) -4.46298554E-05                    1_GWF-(1,15107)
        334          7         34 -2.07945783E-03                    1_GWF-(1,24702)  7.01369651E-05                    1_GWF-(1,15107)
        335          7         35 -1.70902062E-03                    1_GWF-(1,24689)  3.74656671E-05                    1_GWF-(1,15939)
        336          7         36 -1.82927607E-03                    1_GWF-(1,21424)  3.16675924E-05                    1_GWF-(1,15107)
        337          7         37 -1.90128389E-03                    1_GWF-(1,21419) -3.30131318E-05                    1_GWF-(1,11456)
        338          7         38 -1.83332155E-03                    1_GWF-(1,24313)  2.34078376E-05                    1_GWF-(1,15107)
        339          7         39 -1.49312923E-03                    1_GWF-(1,24313)  1.61478471E-05                    1_GWF-(1,10342)
        340          7         40 -1.72874499E-03                    1_GWF-(1,26665) -3.27918720E-05                    1_GWF-(1,15107)
        341          7         41 -1.76984919E-03                    1_GWF-(1,26666)  2.83982722E-05                    1_GWF-(1,15107)
        342          7         42 -1.81873585E-03                    1_GWF-(1,26665)  2.60999457E-05                    1_GWF-(1,14801)
        343          7         43 -1.29595739E-03                     1_GWF-(1,8450) -3.88321184E-05                    1_GWF-(1,11456)
        344          7         44  1.24988627E-03                    1_GWF-(1,26217)  2.87046555E-05                    1_GWF-(1,11456)
        345          7         45  1.53105876E-03                    1_GWF-(1,26218)  2.64317214E-05                    1_GWF-(1,14938)
        346          7         46  1.25480283E-03                    1_GWF-(1,26217)  4.53835238E-05                    1_GWF-(1,15107)
        347          7         47 -1.33888482E-03                    1_GWF-(1,26217)  4.89895443E-05                    1_GWF-(1,11456)
        348          7         48 -1.51445392E-03                    1_GWF-(1,26218)  6.09451647E-05                    1_GWF-(1,15107)
        349          7         49 -1.21477817E-03                    1_GWF-(1,26217) -3.52956691E-05                    1_GWF-(1,11456)
        350          7         50  1.14249011E-03                    1_GWF-(1,26217)  5.48479439E-05                    1_GWF-(1,11456)
        351          8          1  1.12340246E-03                    1_GWF-(1,26218) -3.34493581E-05                    1_GWF-(1,11456)
        352          8          2  1.12938657E-03                    1_GWF-(1,26217)  4.29076554E-05                    1_GWF-(1,15107)
        353          8          3  1.31167527E-03                    1_GWF-(1,26218)  4.74154282E-05                    1_GWF-(1,11456)
        354          8          4  1.14031863E-03                    1_GWF-(1,26217) -4.07729295E-05                    1_GWF-(1,11456)
        355          8          5  1.03665086E-03                    1_GWF-(1,21687)  1.62071756E-05                    1_GWF-(1,14801)
        356          8          6 -1.13593721E-03                    1_GWF-(1,26218)  2.53822965E-05                    1_GWF-(1,11456)
        357          8          7  9.57024805E-04                    1_GWF-(1,21672) -3.36666805E-05                    1_GWF-(1,11456)
        358          8          8  9.27970357E-04                    1_GWF-(1,20931)  1.79991151E-05                    1_GWF-(1,14801)
        359          8          9  1.20897475E-03                    1_GWF-(1,26665)  2.18596173E-05                    1_GWF-(1,15107)
        360          8         10  1.17126200E-03                    1_GWF-(1,26543) -2.48565051E-05                    1_GWF-(1,11456)
        361          8         11  1.06403728E-03                    1_GWF-(1,26588)  7.19270294E-06                    1_GWF-(1,14796)
        362          8         12  9.96909643E-04                    1_GWF-(1,24319)  2.33410560E-05                    1_GWF-(1,15107)
        363          8         13  1.13023601E-03                    1_GWF-(1,24313) -2.04649212E-05                    1_GWF-(1,11456)
        364          8         14 -1.11909684E-03                    1_GWF-(1,26623)  1.00289042E-05                    1_GWF-(1,14798)
        365          8         15 -1.10272954E-03                    1_GWF-(1,26622)  1.94263775E-05                    1_GWF-(1,11456)
        366          8         16  8.74468121E-04                    1_GWF-(1,21414) -1.64595566E-05                    1_GWF-(1,11456)
        367          8         17  9.77817704E-04                    1_GWF-(1,24689)  2.99194548E-05                    1_GWF-(1,15107)
        368          8         18  8.97548963E-04                    1_GWF-(1,24703) -2.08982911E-05                    1_GWF-(1,15107)
        369          8         19  8.33857383E-04                    1_GWF-(1,24678)  3.59556143E-05                    1_GWF-(1,15107)
        370          8         20  7.04712453E-04                    1_GWF-(1,25036) -2.39999250E-05                    1_GWF-(1,15107)
        371          8         21  7.14813588E-04                    1_GWF-(1,24961)  2.42580543E-05                    1_GWF-(1,15107)
        372          8         22  6.14400859E-04                    1_GWF-(1,24983) -2.01705437E-05                    1_GWF-(1,15107)
        373          8         23  5.56477198E-04                    1_GWF-(1,25114)  2.29370526E-05                    1_GWF-(1,15107)
        374          8         24 -6.93286714E-04                    1_GWF-(1,26543)  9.80525987E-06                    1_GWF-(1,14801)
        375          8         25 -7.12986946E-04                    1_GWF-(1,26588) -1.58710996E-05                    1_GWF-(1,15107)
        376          8         26 -6.12834869E-04                     1_GWF-(1,8338)  2.64205824E-05                    1_GWF-(1,15107)
        377          8         27  4.40141652E-04                    1_GWF-(1,26649) -2.03840905E-05                    1_GWF-(1,15107)
        378          8         28  5.85492900E-04                    1_GWF-(1,26487)  2.38014354E-05                    1_GWF-(1,15107)
        379          8         29  8.32129108E-04                    1_GWF-(1,26420)  9.34206805E-06                    1_GWF-(1,14799)
        380          8         30  8.44631363E-04                    1_GWF-(1,26487)  1.16737446E-05                    1_GWF-(1,14938)
        381          8         31  6.55688501E-04                    1_GWF-(1,26486)  1.93928046E-05                    1_GWF-(1,15107)
        382          8         32  4.69288269E-04                     1_GWF-(1,8023) -1.84159247E-05                    1_GWF-(1,15107)
        383          8         33  4.23150228E-04                     1_GWF-(1,8015)  1.54214791E-05                    1_GWF-(1,15107)
        384          8         34 -4.73060459E-04                    1_GWF-(1,26486) -1.21848045E-05                    1_GWF-(1,11456)
        385          8         35 -4.83541620E-04                    1_GWF-(1,26586)  1.02262324E-05                    1_GWF-(1,14799)
        386          8         36 -5.78687671E-04                    1_GWF-(1,26486)  1.12193786E-05                    1_GWF-(1,14801)
        387          8         37 -5.93183389E-04                    1_GWF-(1,26350) -1.23500723E-05                    1_GWF-(1,11456)
        388          8         38 -6.55624354E-04                    1_GWF-(1,26422)  1.91293547E-05                    1_GWF-(1,15107)
        389          8         39 -5.93045751E-04                    1_GWF-(1,26350)  1.26420712E-05                    1_GWF-(1,14938)
        390          8         40 -5.77384331E-04                    1_GWF-(1,26422)  1.35603371E-05                    1_GWF-(1,15107)
        391          8         41 -5.09913852E-04                    1_GWF-(1,20584)  9.82974675E-06                    1_GWF-(1,11456)
        392          8         42 -4.34374954E-04                    1_GWF-(1,20575)  9.29357407E-06                    1_GWF-(1,14799)
        393          8         43  2.74950558E-04                    1_GWF-(1,26586) -8.08187209E-06                    1_GWF-(1,11456)
        394          8         44 -2.90000490E-04                    1_GWF-(1,16540)  1.12773548E-05                    1_GWF-(1,11456)
        395          8         45  3.56128303E-04                    1_GWF-(1,26486)  1.12689304E-05                    1_GWF-(1,15107)
        396          8         46  3.83552340E-04                    1_GWF-(1,26350) -1.59129370E-05                    1_GWF-(1,15107)
        397          8         47  4.63282989E-04                    1_GWF-(1,16538)  1.87306964E-05                    1_GWF-(1,15107)
        398          8         48  5.05981721E-04                    1_GWF-(1,16236) -1.51419215E-05                    1_GWF-(1,15107)
        399          8         49  4.79719002E-04                    1_GWF-(1,16113)  1.99982194E-05                    1_GWF-(1,15107)
        400          8         50  3.68092158E-04                    1_GWF-(1,11426) -2.38002739E-05                    1_GWF-(1,15107)
        401          9          1 -3.84281587E-04                    1_GWF-(1,11426)  1.91099299E-05                    1_GWF-(1,15107)
        402          9          2 -4.41411303E-04                    1_GWF-(1,16230)  1.28608553E-05                    1_GWF-(1,14938)
        403          9          3 -4.74327775E-04                    1_GWF-(1,16236)  1.36519362E-05                    1_GWF-(1,15107)
        404          9          4 -4.18659940E-04                    1_GWF-(1,26486)  7.31165515E-06                    1_GWF-(1,14799)
        405          9          5 -4.68564829E-04                    1_GWF-(1,26487)  6.59857096E-06                    1_GWF-(1,14799)
        406          9          6 -4.84067789E-04                    1_GWF-(1,26486)  5.98701512E-06                    1_GWF-(1,11456)
        407          9          7 -3.89646705E-04                    1_GWF-(1,26588) -6.86380721E-06                    1_GWF-(1,15107)
        408          9          8 -2.75145049E-04                    1_GWF-(1,26543)  7.57873899E-06                    1_GWF-(1,15107)
        409          9          9 -2.42823007E-04                    1_GWF-(1,26649)  6.90074612E-06                    1_GWF-(1,11456)
        410          9         10  2.75085406E-04                    1_GWF-(1,20584) -5.86357563E-06                    1_GWF-(1,11456)
        411          9         11  2.28077114E-04                    1_GWF-(1,26420)  6.75157194E-06                    1_GWF-(1,15107)
        412          9         12  2.22242193E-04                    1_GWF-(1,26422)  6.30076315E-06                    1_GWF-(1,11456)
        413          9         13  2.56689914E-04                    1_GWF-(1,26544)  1.07841906E-05                    1_GWF-(1,15107)
        414          9         14  2.93016794E-04                    1_GWF-(1,26422)  8.25751970E-06                    1_GWF-(1,14938)
        415          9         15  2.61042079E-04                    1_GWF-(1,26350)  9.36068916E-06                    1_GWF-(1,15107)
        416          9         16 -3.12309017E-04                    1_GWF-(1,26350) -6.61321311E-06                    1_GWF-(1,15107)
        417          9         17 -2.94803187E-04                    1_GWF-(1,26422)  4.91456926E-06                    1_GWF-(1,14801)
        418          9         18  2.67411057E-04                    1_GWF-(1,26422)  4.33767643E-06                    1_GWF-(1,14801)
        419          9         19 -2.29907882E-04                     1_GWF-(1,8021) -6.42171673E-06                    1_GWF-(1,11456)
        420          9         20 -3.17068338E-04                    1_GWF-(1,26649)  8.41852024E-06                    1_GWF-(1,15107)
        421          9         21 -3.39327480E-04                    1_GWF-(1,26622)  6.37499344E-06                    1_GWF-(1,14938)
        422          9         22 -3.48743038E-04                    1_GWF-(1,26486) -5.62291405E-06                    1_GWF-(1,11456)
        423          9         23 -3.01253314E-04                    1_GWF-(1,26487)  5.71984172E-06                    1_GWF-(1,15107)
        424          9         24 -2.83653002E-04                    1_GWF-(1,26486) -6.47339211E-06                    1_GWF-(1,15107)
        425          9         25  1.91759266E-04                     1_GWF-(1,8335)  9.97713280E-06                    1_GWF-(1,15107)
        426          9         26  2.61457923E-04                     1_GWF-(1,8339) -7.80630516E-06                    1_GWF-(1,15107)
        427          9         27  2.15339927E-04                     1_GWF-(1,8474)  8.74364347E-06                    1_GWF-(1,15107)
        428          9         28 -1.98463404E-04                    1_GWF-(1,25116)  5.04027283E-06                    1_GWF-(1,14799)
        429          9         29 -2.00350507E-04                    1_GWF-(1,24434)  3.47256142E-06                    1_GWF-(1,14799)
        430          9         30 -2.15386075E-04                    1_GWF-(1,24961)  5.39255520E-06                    1_GWF-(1,15107)
        431          9         31 -2.06450120E-04                    1_GWF-(1,24983)  6.36447374E-06                    1_GWF-(1,14938)
        432          9         32 -2.25926897E-04                    1_GWF-(1,24673)  9.44293644E-06                    1_GWF-(1,15107)
        433          9         33 -2.61445792E-04                    1_GWF-(1,24678)  4.61417505E-06                    1_GWF-(1,14938)
        434          9         34 -2.43962929E-04                    1_GWF-(1,24701) -5.35480202E-06                    1_GWF-(1,11456)
        435          9         35 -2.13873937E-04                    1_GWF-(1,26665)  3.24365015E-06                    1_GWF-(1,14801)
        436          9         36  2.34946821E-04                    1_GWF-(1,26665) -4.35713442E-06                    1_GWF-(1,15107)
        437          9         37 -2.15241959E-04                    1_GWF-(1,21423)  5.92781481E-06                    1_GWF-(1,15107)
        438          9         38 -2.30376137E-04                    1_GWF-(1,24311)  4.81589352E-06                    1_GWF-(1,15939)
        439          9         39 -2.05772706E-04                    1_GWF-(1,24586)  5.60576906E-06                    1_GWF-(1,15107)
        440          9         40 -1.92457767E-04                    1_GWF-(1,20915) -5.84036766E-06                    1_GWF-(1,11456)
        441          9         41 -1.99333120E-04                    1_GWF-(1,20576)  3.51843571E-06                    1_GWF-(1,11456)
        442          9         42 -1.90845649E-04                    1_GWF-(1,20574)  3.36668466E-06                    1_GWF-(1,14801)
        443          9         43 -1.70978044E-04                     1_GWF-(1,8450) -5.43736393E-06                    1_GWF-(1,11456)
        444          9         44  1.61116073E-04                    1_GWF-(1,26217)  5.17102495E-06                    1_GWF-(1,11456)
        445          9         45  1.77295300E-04                    1_GWF-(1,26218)  3.25802490E-06                    1_GWF-(1,14938)
        446          9         46  1.86321504E-04                    1_GWF-(1,26543) -4.86992465E-06                    1_GWF-(1,11456)
        447          9         47  2.26274079E-04                    1_GWF-(1,26588)  3.11250477E-06                    1_GWF-(1,14798)
        448          9         48  1.89546358E-04                    1_GWF-(1,26622)  3.23897331E-06                    1_GWF-(1,14799)
        449          9         49 -1.29421525E-04                    1_GWF-(1,26218) -6.08746178E-06                    1_GWF-(1,11456)
        450          9         50  1.35676468E-04                    1_GWF-(1,26218) -4.07739086E-06                    1_GWF-(1,15107)
        451         10          1 -6.58419064E-03                    1_GWF-(1,11460)  2.12063974E-06                    1_GWF-(1,14798)
        452         10          2 -1.65680022E-03                    1_GWF-(1,11439)  2.56486371E-06                    1_GWF-(1,14801)
        453         10          3  7.22248936E-04                    1_GWF-(1,11439)  3.87816613E-06                    1_GWF-(1,15107)
        454         10          4  6.66412180E-04                    1_GWF-(1,11440)  2.79501049E-06                    1_GWF-(1,14801)
        455         10          5  3.76179953E-04                    1_GWF-(1,11416)  2.49927268E-06                    1_GWF-(1,15107)
        456         10          6  3.20217515E-04                    1_GWF-(1,11439)  2.09929265E-06                    1_GWF-(1,15107)
        457         10          7 -2.27453944E-04                    1_GWF-(1,11416)  2.62991930E-06                    1_GWF-(1,14938)
        458         10          8 -2.92834231E-04                    1_GWF-(1,11439)  4.24161537E-06                    1_GWF-(1,15107)
        459         10          9  2.92718073E-04                    1_GWF-(1,11439) -2.18113527E-06                    1_GWF-(1,15107)
        460         10         10  2.74590489E-04                    1_GWF-(1,11440)  1.75272952E-06                    1_GWF-(1,14801)
        461         10         11 -2.47500692E-04                    1_GWF-(1,11440)  1.22837382E-06                    1_GWF-(1,14801)
        462         10         12 -1.85875897E-04                    1_GWF-(1,11482)  8.41356792E-07                    1_GWF-(1,14801)
[...]
        569         12         19  1.48211851E-05                    1_GWF-(1,26649)  3.97860335E-07                    1_GWF-(1,14799)
        570         12         20  1.52617714E-05                    1_GWF-(1,26622)  2.44721361E-07                    1_GWF-(1,14823)
        571         12         21  1.11207821E-05                     1_GWF-(1,8474)  5.22949295E-07                    1_GWF-(1,15107)
        572         12         22  1.07462117E-05                    1_GWF-(1,24961) -5.57779607E-07                    1_GWF-(1,15107)
        573         12         23  1.02354005E-05                    1_GWF-(1,24982)  6.35460988E-07                    1_GWF-(1,15107)
        574         12         24 -1.19109688E-05                     1_GWF-(1,8476) -5.93567737E-07                    1_GWF-(1,15107)
        575         12         25 -1.13182407E-05                     1_GWF-(1,8478)  7.77649668E-07                    1_GWF-(1,15107)
        576         12         26 -1.35487621E-05                     1_GWF-(1,8335) -3.67822438E-07                    1_GWF-(1,15107)
        577         12         27 -1.22712650E-05                    1_GWF-(1,26665)  2.22371896E-07                    1_GWF-(1,14802)
        578         12         28  1.08427628E-05                    1_GWF-(1,26665)  6.23830704E-07                    1_GWF-(1,15107)
        579         12         29  9.20435041E-06                    1_GWF-(1,26666)  6.71103284E-07                    1_GWF-(1,14938)
        580         12         30 -1.48375550E-05                    1_GWF-(1,15168) -5.66746144E-07                    1_GWF-(1,14938)
        581         12         31  1.04116136E-05                    1_GWF-(1,15161) -5.53183882E-07                    1_GWF-(1,15107)
        582         12         32  1.14521569E-05                    1_GWF-(1,15164)  6.87625255E-07                    1_GWF-(1,15107)
        583         12         33 -1.60980404E-05                    1_GWF-(1,15167) -5.18247868E-07                    1_GWF-(1,15107)
        584         12         34  1.08323533E-05                    1_GWF-(1,15168)  2.19692565E-07                    1_GWF-(1,14813)
        585         12         35  1.25069360E-05                    1_GWF-(1,15164)  3.23292138E-07                    1_GWF-(1,14799)
        586         12         36 -1.09997920E-05                    1_GWF-(1,15167)  2.40893421E-07                    1_GWF-(1,14801)
        587         12         37  9.96711940E-06                    1_GWF-(1,15167) -2.38820122E-07                    1_GWF-(1,14938)
        588         12         38  9.72091163E-06                    1_GWF-(1,15164)  2.63377652E-07                    1_GWF-(1,14938)
        589         12         39 -9.03158919E-06                    1_GWF-(1,26623)  3.20187344E-07                    1_GWF-(1,15107)
        590         12         40  1.03830015E-05                    1_GWF-(1,26649)  2.25764320E-07                    1_GWF-(1,14935)
        591         12         41  1.05359723E-05                    1_GWF-(1,26622)  1.84210801E-07                    1_GWF-(1,14813)
        592         12         42  9.93230184E-06                    1_GWF-(1,26649)  4.28272795E-07                    1_GWF-(1,15107)
        593         12         43 -7.19014996E-06                    1_GWF-(1,26350)  3.73145914E-07                    1_GWF-(1,14801)
        594         12         44  6.34809820E-06                    1_GWF-(1,26544)  1.46239498E-07                    1_GWF-(1,14801)
        595         12         45  7.96451215E-06                    1_GWF-(1,26486) -2.18124289E-07                    1_GWF-(1,14801)
        596         12         46  7.94971483E-06                    1_GWF-(1,26544)  1.82400026E-07                    1_GWF-(1,14800)
        597         12         47  9.27869056E-06                    1_GWF-(1,26486)  3.69685699E-07                    1_GWF-(1,14801)
        598         12         48  8.99026479E-06                    1_GWF-(1,26487)  1.77617639E-07                    1_GWF-(1,14796)
        599         12         49  9.31452472E-06                    1_GWF-(1,26420)  1.82514405E-07                    1_GWF-(1,14797)
        600         12         50  6.42070562E-06                    1_GWF-(1,26422)  2.02417088E-07                    1_GWF-(1,14801)
        601         13          1 -6.72850715E-06                    1_GWF-(1,26422)  1.40467599E-07                    1_GWF-(1,14938)
        602         13          2 -1.17618342E-05                    1_GWF-(1,26420)  1.91255117E-07                    1_GWF-(1,14796)
        603         13          3 -1.20021994E-05                    1_GWF-(1,26487)  3.00613321E-07                    1_GWF-(1,14801)
        604         13          4 -1.06421370E-05                    1_GWF-(1,26486)  2.55121621E-07                    1_GWF-(1,14801)
        605         13          5 -8.62886705E-06                    1_GWF-(1,26487)  2.52845523E-07                    1_GWF-(1,15107)
        606         13          6 -7.50482001E-06                    1_GWF-(1,26486) -1.21155970E-07                    1_GWF-(1,15107)
        607         13          7 -5.90288892E-06                    1_GWF-(1,15164)  3.05971876E-07                    1_GWF-(1,14801)
        608         13          8 -5.14468537E-06                    1_GWF-(1,26543)  1.54858360E-07                    1_GWF-(1,14798)
        609         13          9 -7.02018125E-06                    1_GWF-(1,26588)  1.33100320E-07                    1_GWF-(1,14795)
        610         13         10  7.65675433E-06                    1_GWF-(1,26588)  1.33610353E-07                    1_GWF-(1,14934)
        611         13         11  6.69063049E-06                    1_GWF-(1,26543)  2.29042606E-07                    1_GWF-(1,14799)
        612         13         12  6.86417384E-06                    1_GWF-(1,26588)  1.10452339E-07                    1_GWF-(1,10342)
        613         13         13  6.07894187E-06                    1_GWF-(1,26622) -1.33082205E-07                    1_GWF-(1,14799)
        614         13         14  6.15731930E-06                    1_GWF-(1,26623)  1.33531306E-07                    1_GWF-(1,14935)
        615         13         15  6.31706676E-06                    1_GWF-(1,26622)  2.34752173E-07                    1_GWF-(1,14799)
        616         13         16  5.17474266E-06                    1_GWF-(1,26649)  1.13776377E-07                    1_GWF-(1,10342)
        617         13         17 -5.06935712E-06                    1_GWF-(1,15168) -1.29349098E-07                    1_GWF-(1,15107)
        618         13         18  4.65304824E-06                    1_GWF-(1,15164)  1.38658375E-07                    1_GWF-(1,14798)
        619         13         19  5.39461216E-06                    1_GWF-(1,15168)  1.32981376E-07                    1_GWF-(1,14799)
        620         13         20 -6.44327591E-06                    1_GWF-(1,15168) -9.99245440E-08                    1_GWF-(1,14938)
        621         13         21 -4.37326029E-06                    1_GWF-(1,26649)  8.42582179E-08                    1_GWF-(1,14937)
        622         13         22  5.04970281E-06                    1_GWF-(1,15168)  1.11024056E-07                    1_GWF-(1,15107)
        623         13         23 -6.19567375E-06                    1_GWF-(1,15168)  9.43020317E-08                    1_GWF-(1,15107)
        624         13         24  3.51553312E-06                     1_GWF-(1,8047) -1.31934934E-07                    1_GWF-(1,15107)
        625         13         25  4.25398771E-06                     1_GWF-(1,8340)  1.33431618E-07                    1_GWF-(1,15107)
        626         13         26  4.66480232E-06                     1_GWF-(1,8475)  1.21639857E-07                    1_GWF-(1,14938)
        627         13         27  4.51150199E-06                     1_GWF-(1,8453)  1.27524578E-07                    1_GWF-(1,15107)
        628         13         28 -3.83258562E-06                    1_GWF-(1,26665)  1.31732887E-07                    1_GWF-(1,14801)
        629         13         29  4.30720004E-06                    1_GWF-(1,26665)  8.08877537E-08                    1_GWF-(1,14801)
        630         13         30 -4.64762458E-06                    1_GWF-(1,26665)  1.06398345E-07                    1_GWF-(1,15107)
        631         13         31 -4.12571984E-06                     1_GWF-(1,8221) -9.81624390E-08                    1_GWF-(1,15107)
        632         13         32 -4.56921362E-06                     1_GWF-(1,8210)  1.80220467E-07                    1_GWF-(1,15107)
        633         13         33 -3.85608647E-06                    1_GWF-(1,26622) -1.07112477E-07                    1_GWF-(1,15107)
        634         13         34  5.47864459E-06                    1_GWF-(1,26622)  8.08164800E-08                    1_GWF-(1,14824)
        635         13         35  4.69163129E-06                    1_GWF-(1,26649)  1.41145476E-07                    1_GWF-(1,15107)
        636         13         36  3.76274902E-06                    1_GWF-(1,26622) -1.81891202E-07                    1_GWF-(1,15107)
        637         13         37  3.87756132E-06                    1_GWF-(1,11440)  2.52193175E-07                    1_GWF-(1,15107)
        638         13         38  4.97034396E-06                    1_GWF-(1,11439) -2.58326583E-07                    1_GWF-(1,15107)
        639         13         39 -6.77967690E-06                    1_GWF-(1,11439)  2.30356549E-07                    1_GWF-(1,15107)
        640         13         40  4.79220818E-06                    1_GWF-(1,11439) -1.27274785E-07                    1_GWF-(1,15107)
        641         13         41 -4.73531459E-06                    1_GWF-(1,26486) -6.34698138E-08                    1_GWF-(1,15107)
        642         13         42 -6.80653505E-06                    1_GWF-(1,11439)  2.30404918E-07                    1_GWF-(1,15107)
        643         13         43 -4.50425687E-06                    1_GWF-(1,11460) -2.53435414E-07                    1_GWF-(1,15107)
        644         13         44 -4.61517167E-06                    1_GWF-(1,11440)  3.25608352E-07                    1_GWF-(1,15107)
        645         13         45 -7.06080978E-06                    1_GWF-(1,11439) -2.50042367E-07                    1_GWF-(1,15107)
        646         13         46  1.27761167E-05                    1_GWF-(1,11439)  1.84838629E-07                    1_GWF-(1,15107)
        647         13         47  9.56674119E-06                    1_GWF-(1,11460)  1.04531657E-07                    1_GWF-(1,14824)
        648         13         48 -1.24859522E-05                    1_GWF-(1,11460)  8.66303017E-08                    1_GWF-(1,14801)
        649         13         49  5.01036658E-06                    1_GWF-(1,11439)  1.26138279E-07                    1_GWF-(1,15107)
        650         13         50  2.12732277E-05                    1_GWF-(1,11460) -1.40658166E-07                    1_GWF-(1,15107)
        651         14          1 -1.58087602E-05                    1_GWF-(1,11460)  1.55578439E-07                    1_GWF-(1,15107)
        652         14          2 -7.37107712E-06                    1_GWF-(1,11439)  1.00533938E-07                    1_GWF-(1,14801)
        653         14          3  1.33499529E-05                    1_GWF-(1,11460)  8.95289362E-08                    1_GWF-(1,14824)
        654         14          4 -6.53904529E-06                    1_GWF-(1,11460)  1.97918588E-07                    1_GWF-(1,15107)
        655         14          5 -9.15365199E-06                    1_GWF-(1,11439) -2.17273048E-07                    1_GWF-(1,15107)
        656         14          6  5.22830665E-06                    1_GWF-(1,11460)  2.28998225E-07                    1_GWF-(1,15107)
        657         14          7 -4.06375188E-06                    1_GWF-(1,11460) -1.24718081E-07                    1_GWF-(1,15107)
        658         14          8 -4.55786882E-06                    1_GWF-(1,11439)  8.21707026E-08                    1_GWF-(1,14801)
        659         14          9  4.51246120E-06                    1_GWF-(1,11439)  3.99303975E-08                    1_GWF-(1,14798)
        660         14         10  2.77007821E-06                    1_GWF-(1,26486) -8.17082843E-08                    1_GWF-(1,15107)
        661         14         11  2.81097524E-06                    1_GWF-(1,26487)  7.33489341E-08                    1_GWF-(1,15107)
        662         14         12 -2.81892819E-06                    1_GWF-(1,11440)  6.37455979E-08                    1_GWF-(1,14801)
        663         14         13  3.05012107E-06                    1_GWF-(1,11440)  4.81464155E-08                    1_GWF-(1,14824)
        664         14         14  2.39183236E-06                    1_GWF-(1,21427)  9.43244172E-08                    1_GWF-(1,15107)
        665         14         15  2.73960459E-06                    1_GWF-(1,11460) -1.10302698E-07                    1_GWF-(1,15107)
        666         14         16  1.84822086E-06                    1_GWF-(1,11440)  1.64457352E-07                    1_GWF-(1,15107)
        667         14         17 -2.26578976E-06                    1_GWF-(1,26622) -7.50660717E-08                    1_GWF-(1,15107)
        668         14         18  2.42070152E-06                    1_GWF-(1,26622)  6.05479518E-08                    1_GWF-(1,14801)
        669         14         19  1.83848553E-06                    1_GWF-(1,26649)  1.36467625E-07                    1_GWF-(1,15107)
        670         14         20  1.62025892E-06                     1_GWF-(1,8443) -1.37966961E-07                    1_GWF-(1,15107)
        671         14         21  1.96454337E-06                    1_GWF-(1,11460)  1.16393910E-07                    1_GWF-(1,15107)
        672         14         22 -1.44232421E-06                    1_GWF-(1,26665)  5.83629648E-08                    1_GWF-(1,14801)
        673         14         23  1.22287441E-06                    1_GWF-(1,26665) -7.99919357E-08                    1_GWF-(1,15107)
        674         14         24  1.61571953E-06                    1_GWF-(1,11460)  1.60769199E-07                    1_GWF-(1,15107)
        675         14         25 -1.64782873E-06                     1_GWF-(1,8477) -1.51381401E-07                    1_GWF-(1,15107)
        676         14         26 -1.53729807E-06                     1_GWF-(1,8340)  1.63334155E-07                    1_GWF-(1,15107)
        677         14         27 -1.33638661E-06                    1_GWF-(1,15167) -1.42670526E-07                    1_GWF-(1,15107)
        678         14         28  1.16557524E-06                    1_GWF-(1,26543)  8.85390956E-08                    1_GWF-(1,15107)
        679         14         29  1.61094743E-06                    1_GWF-(1,26588)  6.50404697E-08                    1_GWF-(1,15107)
        680         14         30  1.63394401E-06                    1_GWF-(1,26665) -1.36167189E-07                    1_GWF-(1,15107)
        681         14         31  1.14340654E-06                    1_GWF-(1,26588)  1.46475226E-07                    1_GWF-(1,15107)
        682         14         32  1.14870268E-06                     1_GWF-(1,8042) -1.32996373E-07                    1_GWF-(1,15107)
        683         14         33 -1.41929505E-06                    1_GWF-(1,15167)  1.15585834E-07                    1_GWF-(1,15107)
        684         14         34 -8.61647294E-07                    1_GWF-(1,26622) -8.38086452E-08                    1_GWF-(1,15107)
        685         15          1 -8.61651783E-07                    1_GWF-(1,26623)  7.78440985E-08                    1_GWF-(1,15107)
 --------------------------------------------------------------------------------------------------------------------------------------


 UBDSV1 SAVING     FLOW-JA-FACE ON UNIT   1020 AT TIME STEP      1, STRESS PERIOD      1
 UBDSV06 SAVING       DATA-SPDIS IN MODEL ML               PACKAGE NPF             CONNECTED TO MODEL ML               PACKAGE NPF              ON UNIT   1020 AT TIME STEP      1, STRESS PERIOD      1
 UBDSV06 SAVING              WEL IN MODEL ML               PACKAGE ML              CONNECTED TO MODEL ML               PACKAGE WEL_0            ON UNIT   1020 AT TIME STEP      1, STRESS PERIOD      1
 UBDSV06 SAVING              DRN IN MODEL ML               PACKAGE ML              CONNECTED TO MODEL ML               PACKAGE DRN_0            ON UNIT   1020 AT TIME STEP      1, STRESS PERIOD      1
 UBDSV06 SAVING              RIV IN MODEL ML               PACKAGE ML              CONNECTED TO MODEL ML               PACKAGE RIV_0            ON UNIT   1020 AT TIME STEP      1, STRESS PERIOD      1
 UBDSV06 SAVING              GHB IN MODEL ML               PACKAGE ML              CONNECTED TO MODEL ML               PACKAGE GHB_0            ON UNIT   1020 AT TIME STEP      1, STRESS PERIOD      1
 UBDSV06 SAVING              RCH IN MODEL ML               PACKAGE ML              CONNECTED TO MODEL ML               PACKAGE RCHA_0           ON UNIT   1020 AT TIME STEP      1, STRESS PERIOD      1

 HEAD WILL BE SAVED ON UNIT 1021 AT END OF TIME STEP    1, STRESS PERIOD    1


  VOLUME BUDGET FOR ENTIRE MODEL AT END OF TIME STEP    1, STRESS PERIOD   1
  ---------------------------------------------------------------------------------------------------

     CUMULATIVE VOLUME      L**3       RATES FOR THIS TIME STEP      L**3/T          PACKAGE NAME    
     ------------------                 ------------------------                     ----------------

           IN:                                      IN:
           ---                                      ---
                 WEL =           0.0000                   WEL =           0.0000     WEL_0           
                 DRN =           0.0000                   DRN =           0.0000     DRN_0           
                 RIV =           4.0635                   RIV =           1.0159     RIV_0           
                 GHB =          11.0531                   GHB =           2.7633     GHB_0           
                 RCH =           1.0509                   RCH =           0.2627     RCHA_0          

            TOTAL IN =          16.1674              TOTAL IN =           4.0418

          OUT:                                     OUT:
          ----                                     ----
                 WEL =           0.8792                   WEL =           0.2198     WEL_0           
                 DRN =           0.7472                   DRN =           0.1868     DRN_0           
                 RIV =          14.5211                   RIV =           3.6303     RIV_0           
                 GHB =       1.9996E-02                   GHB =       4.9989E-03     GHB_0           
                 RCH =           0.0000                   RCH =           0.0000     RCHA_0          

           TOTAL OUT =          16.1674             TOTAL OUT =           4.0418

            IN - OUT =      -1.1249E-05              IN - OUT =      -2.8123E-06

 PERCENT DISCREPANCY =          -0.00     PERCENT DISCREPANCY =          -0.00




         TIME SUMMARY AT END OF TIME STEP    1 IN STRESS PERIOD    1
                    SECONDS     MINUTES      HOURS       DAYS        YEARS
                    -----------------------------------------------------------
   TIME STEP LENGTH  4.0000     6.66667E-02 1.11111E-03 4.62963E-05 1.26752E-07
 STRESS PERIOD TIME  4.0000     6.66667E-02 1.11111E-03 4.62963E-05 1.26752E-07
         TOTAL TIME  4.0000     6.66667E-02 1.11111E-03 4.62963E-05 1.26752E-07


end timestep

