                                   MODFLOW 6
                U.S. GEOLOGICAL SURVEY MODULAR HYDROLOGIC MODEL
                            VERSION 6.2.2 07/30/2021

  MODFLOW 6 compiled Mar  4 2022 18:19:04 with GFORTRAN compiler (ver. 6.3.0)

This software has been approved for release by the U.S. Geological 
Survey (USGS). Although the software has been subjected to rigorous 
review, the USGS reserves the right to update the software as needed 
pursuant to further analysis and review. No warranty, expressed or 
implied, is made by the USGS or the U.S. Government as to the 
functionality of the software and related material nor shall the 
fact of release constitute any such warranty. Furthermore, the 
software is released on condition that neither the USGS nor the U.S. 
Government shall be held liable for any damages resulting from its 
authorized or unauthorized use. Also refer to the USGS Water 
Resources Software User Rights Notice for complete use, copyright, 
and distribution information.


System command used to initiate simulation:
mf6

MODFLOW was compiled using uniform precision.

Real Variables
  KIND: 8
  TINY (smallest non-zero value):    2.225074-308
  HUGE (largest value):    1.797693+308
  PRECISION: 15
  BIT SIZE: 64

Integer Variables
  KIND: 4
  HUGE (largest value): 2147483647
  BIT SIZE: 32

Long Integer Variables
  KIND: 8
  HUGE (largest value): 9223372036854775807
  BIT SIZE: 64

Logical Variables
  KIND: 4
  BIT SIZE: 32


 OPENED mfsim.nam
 FILE TYPE:NAM   UNIT 1001   STATUS:OLD                 
 FORMAT:FORMATTED              ACCESS:SEQUENTIAL          
 ACTION:READ                

 # File generated by Flopy version 3.3.5 on 04/08/2022 at 15:14:52.

 READING SIMULATION OPTIONS
 END OF SIMULATION OPTIONS

 READING SIMULATION TIMING

 OPENED mfsim.tdis
 FILE TYPE:TDIS   UNIT 1002   STATUS:OLD                 
 FORMAT:FORMATTED              ACCESS:SEQUENTIAL          
 ACTION:READ                


 TDIS -- TEMPORAL DISCRETIZATION PACKAGE,
 VERSION 1 : 11/13/2014 - INPUT READ FROM UNIT 1002
 # File generated by Flopy version 3.3.5 on 04/08/2022 at 15:14:52.
 PROCESSING TDIS OPTIONS
    SIMULATION TIME UNIT IS SECONDS
 END OF TDIS OPTIONS
 PROCESSING TDIS DIMENSIONS
    1 STRESS PERIOD(S) IN SIMULATION
 END OF TDIS DIMENSIONS
 PROCESSING TDIS PERIODDATA


 STRESS PERIOD     LENGTH       TIME STEPS     MULTIPLIER FOR DELT
 ----------------------------------------------------------------------------
        1         1.000000          1                    1.000
 END OF TDIS PERIODDATA
 END OF SIMULATION TIMING

 READING SIMULATION MODELS
    GWF6 model ML will be created as model 1
 END OF SIMULATION MODELS

 READING SIMULATION EXCHANGES
 END OF SIMULATION EXCHANGES

 READING SOLUTIONGROUP

 Creating solution: SLN_1           

 OPENED mfsim.ims
 FILE TYPE:IMS   UNIT 1015   STATUS:OLD                 
 FORMAT:FORMATTED              ACCESS:SEQUENTIAL          
 ACTION:READ                

 END OF SIMULATION SOLUTIONGROUP

 IMS -- ITERATIVE MODEL SOLUTION PACKAGE, VERSION 6, 4/28/2017
         INPUT READ FROM UNIT 1015
 # File generated by Flopy version 3.3.5 on 04/08/2022 at 15:14:52.

 PROCESSING IMS OPTIONS
 END OF IMS OPTIONS

 PROCESSING IMS NONLINEAR
 END OF IMS NONLINEAR DATA
 ***UNDER-RELAXATION WILL NOT BE USED***

 ***IMS LINEAR SOLVER WILL BE USED***

 IMSLINEAR -- UNSTRUCTURED LINEAR SOLUTION PACKAGE, VERSION 8, 04/28/2017

 PROCESSING LINEAR DATA
 END OF LINEAR DATA

 OUTER ITERATION CONVERGENCE CRITERION    (DVCLOSE) =    0.100000E-04
 MAXIMUM NUMBER OF OUTER ITERATIONS        (MXITER) = 100
 SOLVER PRINTOUT INDEX                     (IPRIMS) = 2
 NONLINEAR ITERATION METHOD            (NONLINMETH) = 0
 LINEAR SOLUTION METHOD                   (LINMETH) = 1

       SOLUTION BY THE        CONJUGATE-GRADIENT       METHOD
 ------------------------------------------------------------------
 MAXIMUM OF 100 CALLS OF SOLUTION ROUTINE
 MAXIMUM OF 50 INTERNAL ITERATIONS PER CALL TO SOLUTION ROUTINE
 LINEAR ACCELERATION METHOD            = CG        
 MATRIX PRECONDITIONING TYPE           = INCOMPLETE LU       
 MATRIX SCALING APPROACH               = NO SCALING          
 MATRIX REORDERING APPROACH            = ORIGINAL ORDERING        
 NUMBER OF ORTHOGONALIZATIONS          = 0
 HEAD CHANGE CRITERION FOR CLOSURE     =    0.10000E-05
 RESIDUAL CHANGE CRITERION FOR CLOSURE =    0.10000E-04
 RESIDUAL CONVERGENCE OPTION           = 1
 RESIDUAL CONVERGENCE NORM             = INFINITY NORM S 
 RELAXATION FACTOR                     =    0.00000E+00




    Solving:  Stress period:     1    Time step:     1

1
                            STRESS PERIOD NO. 1, LENGTH =   1.000000    
                            -----------------------------------------------
                            NUMBER OF TIME STEPS = 1
                            MULTIPLIER FOR DELT =     1.000
                            INITIAL TIME STEP SIZE =   1.000000    

 SLN_1 OUTER ITERATION SUMMARY
 ----------------------------------------------------------------------------------------------------------
                                OUTER      INNER                    STEP   MAXIMUM CHANGE MODEL-(CELLID) OR
 OUTER ITERATION STEP       ITERATION  ITERATION  MAXIMUM CHANGE SUCCESS             MODEL-PACKAGE-(NUMBER)
 ----------------------------------------------------------------------------------------------------------
 Model                              1         50       51.925133                            1_GWF-(1,26517)
 Model                              2         50      -47.118312                            1_GWF-(1,26517)
 Model                              3         50       1.8629887                            1_GWF-(1,24001)
 Model                              4         50      -1.2755172                            1_GWF-(1,26544)
 Model                              5         50     -0.20301182                            1_GWF-(1,18809)
 Model                              6         50     -0.14068219                            1_GWF-(1,26544)
 Model                              7         50 -3.30586242E-02                             1_GWF-(1,2542)
 Model                              8         50  1.77201349E-02                            1_GWF-(1,21657)
 Model                              9         50 -5.67528705E-03                             1_GWF-(1,2549)
 Model                             10         50 -2.97140602E-03                             1_GWF-(1,3219)
 Model                             11         50 -1.05696527E-03                             1_GWF-(1,2549)
 Model                             12         50 -5.62496701E-04                             1_GWF-(1,3218)
 Model                             13         50 -1.97793755E-04                             1_GWF-(1,2543)
 Model                             14         50 -1.09340533E-04                             1_GWF-(1,3440)
 Model                             15         50 -3.84654612E-05                             1_GWF-(1,2543)
 Model                             16         50 -2.10835950E-05                             1_GWF-(1,3440)
 Model                             17          4  2.74118158E-06                            1_GWF-(1,20544)
 Model                             18          1  9.48597958E-07       *                    1_GWF-(1,26623)
 ----------------------------------------------------------------------------------------------------------


 18 CALLS TO NUMERICAL SOLUTION IN TIME STEP 1 STRESS PERIOD 1
 805 TOTAL ITERATIONS

 SLN_1 INNER ITERATION SUMMARY
 --------------------------------------------------------------------------------------------------------------------------------------
      TOTAL      OUTER      INNER                                                            MAXIMUM                                   
  ITERATION  ITERATION  ITERATION  MAXIMUM CHANGE      MAXIMUM CHANGE MODEL-(CELLID)        RESIDUAL    MAXIMUM RESIDUAL MODEL-(CELLID)
 --------------------------------------------------------------------------------------------------------------------------------------
          1          1          1      -11.772615                    1_GWF-(1,12785)  9.33975342E-02                      1_GWF-(1,612)
          2          1          2       9.8879982                    1_GWF-(1,26555)  8.01018687E-02                    1_GWF-(1,11530)
          3          1          3       13.097553                    1_GWF-(1,26512)  9.32242851E-02                    1_GWF-(1,11530)
          4          1          4       10.267083                    1_GWF-(1,26510)  8.59244213E-02                    1_GWF-(1,11188)
          5          1          5       7.6773531                    1_GWF-(1,26611)  7.17994589E-02                    1_GWF-(1,11175)
          6          1          6       8.6864646                    1_GWF-(1,26649)  4.39031607E-02                    1_GWF-(1,15109)
          7          1          7       7.1774679                    1_GWF-(1,26622)  2.85378657E-02                    1_GWF-(1,15108)
          8          1          8       6.0035396                    1_GWF-(1,26665)  2.96249176E-02                    1_GWF-(1,10843)
          9          1          9       4.4436903                    1_GWF-(1,26647)  3.41225773E-02                    1_GWF-(1,10843)
         10          1         10       4.5569199                    1_GWF-(1,26486)  3.39037862E-02                    1_GWF-(1,10843)
         11          1         11       4.4967723                    1_GWF-(1,26544)  4.96425732E-02                    1_GWF-(1,15109)
         12          1         12       2.6369492                    1_GWF-(1,26413)  4.77855404E-02                    1_GWF-(1,15109)
         13          1         13       3.1208541                    1_GWF-(1,26422)  4.70735826E-02                    1_GWF-(1,15107)
         14          1         14       2.5515268                    1_GWF-(1,26350)  3.60028669E-02                    1_GWF-(1,15107)
         15          1         15       1.8784618                    1_GWF-(1,26218)  3.41644500E-02                    1_GWF-(1,15108)
         16          1         16      -1.2703385                    1_GWF-(1,16036)  4.93027579E-02                    1_GWF-(1,15109)
         17          1         17      -1.4154462                    1_GWF-(1,26623)  5.16455550E-02                    1_GWF-(1,15109)
         18          1         18      -2.3668935                    1_GWF-(1,26543)  5.28357654E-02                    1_GWF-(1,15109)
         19          1         19      -3.4252456                    1_GWF-(1,26588)  4.10214291E-02                    1_GWF-(1,15107)
         20          1         20      -2.7582125                    1_GWF-(1,26543)  3.96142478E-02                    1_GWF-(1,15108)
         21          1         21      -2.3744514                    1_GWF-(1,26487)  5.10117539E-02                    1_GWF-(1,15109)
         22          1         22      -2.7175836                    1_GWF-(1,26486)  5.03431587E-02                    1_GWF-(1,15107)
         23          1         23      -2.8320533                    1_GWF-(1,26487)  5.69197313E-02                    1_GWF-(1,15109)
         24          1         24      -2.7885386                    1_GWF-(1,26486)  4.95505121E-02                    1_GWF-(1,15109)
         25          1         25       2.4875324                    1_GWF-(1,26420)  4.97980289E-02                    1_GWF-(1,15108)
         26          1         26       2.4498429                    1_GWF-(1,26487)  5.82344532E-02                    1_GWF-(1,15109)
         27          1         27       2.1381256                    1_GWF-(1,26420)  4.79796641E-02                    1_GWF-(1,15107)
         28          1         28       1.6390030                    1_GWF-(1,26422)  4.35308904E-02                    1_GWF-(1,15109)
         29          1         29       1.2607262                    1_GWF-(1,26350)  3.57115325E-02                    1_GWF-(1,15108)
         30          1         30      -1.4844704                    1_GWF-(1,25468) -4.85681427E-02                    1_GWF-(1,11189)
         31          1         31      -1.9205521                    1_GWF-(1,25454)  4.19511884E-02                    1_GWF-(1,15109)
         32          1         32      -2.2440998                    1_GWF-(1,25450)  2.52917739E-02                    1_GWF-(1,15107)
         33          1         33      -2.1472677                    1_GWF-(1,26422)  2.49951803E-02                     1_GWF-(1,9051)
         34          1         34      -1.6664960                    1_GWF-(1,25279)  2.59682138E-02                     1_GWF-(1,9051)
         35          1         35      -1.5968780                    1_GWF-(1,26486)  2.55764227E-02                     1_GWF-(1,9051)
         36          1         36      -1.3687019                    1_GWF-(1,25209) -2.45022487E-02                    1_GWF-(1,11532)
         37          1         37      -1.5181444                    1_GWF-(1,25229) -2.85062836E-02                    1_GWF-(1,11531)
         38          1         38      -1.5757764                    1_GWF-(1,24835) -3.22381222E-02                    1_GWF-(1,11530)
         39          1         39      -1.6480133                    1_GWF-(1,24842)  4.39987235E-02                    1_GWF-(1,11530)
         40          1         40      -1.4490716                    1_GWF-(1,24884)  4.34492431E-02                    1_GWF-(1,11189)
         41          1         41      -1.3177386                    1_GWF-(1,21703) -3.13879406E-02                    1_GWF-(1,11189)
         42          1         42      -1.2554513                    1_GWF-(1,21741) -2.46568521E-02                    1_GWF-(1,11190)
         43          1         43      -1.0432820                    1_GWF-(1,24882)  2.28190003E-02                    1_GWF-(1,11177)
         44          1         44       1.2767412                    1_GWF-(1,26217)  2.72739830E-02                    1_GWF-(1,15107)
         45          1         45       1.4310585                    1_GWF-(1,26218) -2.31952308E-02                    1_GWF-(1,11186)
         46          1         46       1.4025246                    1_GWF-(1,22433) -2.60267216E-02                    1_GWF-(1,11174)
         47          1         47       1.5722968                    1_GWF-(1,22424) -2.05063943E-02                    1_GWF-(1,11169)
         48          1         48       1.7140538                    1_GWF-(1,25178) -2.16560094E-02                    1_GWF-(1,11145)
         49          1         49      -1.9152341                    1_GWF-(1,26217)  1.84332710E-02                     1_GWF-(1,9052)
         50          1         50      -1.9134818                    1_GWF-(1,26218)  1.79961286E-02                     1_GWF-(1,9291)
         51          2          1      -48.160921                    1_GWF-(1,26519)     -0.26235480                    1_GWF-(1,26458)
         52          2          2      -19.960944                    1_GWF-(1,26513)  5.92090318E-02                    1_GWF-(1,26458)
         53          2          3      -9.6545505                    1_GWF-(1,26637)  4.73831830E-02                    1_GWF-(1,26516)
         54          2          4      -10.007757                    1_GWF-(1,26665) -1.95373900E-02                    1_GWF-(1,26610)
         55          2          5      -6.8327183                    1_GWF-(1,26622)  2.72111742E-02                    1_GWF-(1,26458)
         56          2          6      -5.9465155                    1_GWF-(1,26589)  1.58116814E-02                     1_GWF-(1,9291)
         57          2          7      -5.4168562                    1_GWF-(1,26543)  1.58173064E-02                     1_GWF-(1,9291)
         58          2          8      -4.6537817                    1_GWF-(1,26486)  1.59478265E-02                     1_GWF-(1,9291)
         59          2          9      -3.4730102                    1_GWF-(1,26487)  1.60545142E-02                     1_GWF-(1,9291)
         60          2         10      -3.1654426                    1_GWF-(1,26350)  1.59318565E-02                     1_GWF-(1,9291)
         61          2         11      -2.6228881                    1_GWF-(1,26348)  1.56767549E-02                     1_GWF-(1,9291)
         62          2         12      -2.2885588                    1_GWF-(1,26217)  1.53920405E-02                     1_GWF-(1,9291)
         63          2         13      -1.4870401                    1_GWF-(1,26218)  1.51030883E-02                     1_GWF-(1,9291)
         64          2         14      -1.1481519                    1_GWF-(1,26649)  1.46644662E-02                     1_GWF-(1,9291)
         65          2         15      -1.3410043                    1_GWF-(1,26622)  1.37342610E-02                     1_GWF-(1,9291)
         66          2         16      -1.7815279                    1_GWF-(1,25509)  1.24884583E-02                     1_GWF-(1,9051)
         67          2         17       1.8283932                    1_GWF-(1,26218)  1.28696849E-02                     1_GWF-(1,9051)
         68          2         18       1.7483054                    1_GWF-(1,26422)  1.33182796E-02                     1_GWF-(1,9051)
         69          2         19       1.4264629                    1_GWF-(1,26218)  1.36166332E-02                     1_GWF-(1,9051)
         70          2         20      0.99700403                    1_GWF-(1,26543)  1.36719757E-02                     1_GWF-(1,9051)
         71          2         21       1.3634520                    1_GWF-(1,26588)  1.34592917E-02                     1_GWF-(1,9051)
         72          2         22       1.6232322                    1_GWF-(1,26543)  1.29969882E-02                     1_GWF-(1,9051)
         73          2         23      -1.1563042                    1_GWF-(1,26218)  1.23104412E-02                     1_GWF-(1,9051)
         74          2         24      -1.3827277                    1_GWF-(1,26487)  1.13910499E-02                     1_GWF-(1,9051)
         75          2         25      -1.7221742                    1_GWF-(1,26486)  1.04283555E-02                     1_GWF-(1,9051)
         76          2         26      -1.9062176                    1_GWF-(1,26487)  1.04081523E-02                    1_GWF-(1,10010)
         77          2         27      -1.2976306                    1_GWF-(1,26486)  1.12701452E-02                    1_GWF-(1,10010)
         78          2         28      0.60659884                    1_GWF-(1,26217)  1.17405843E-02                    1_GWF-(1,10010)
         79          2         29      0.70407237                    1_GWF-(1,26218)  1.20251445E-02                    1_GWF-(1,10010)
         80          2         30      0.76797640                    1_GWF-(1,26420)  1.21987570E-02                    1_GWF-(1,10010)
         81          2         31      0.77972730                    1_GWF-(1,25248)  1.23023833E-02                    1_GWF-(1,10010)
         82          2         32      0.66818658                    1_GWF-(1,25252)  1.20946200E-02                    1_GWF-(1,10010)
         83          2         33      0.59268556                    1_GWF-(1,25206)  1.17552725E-02                    1_GWF-(1,10010)
         84          2         34      0.52610460                    1_GWF-(1,26350)  1.13965036E-02                    1_GWF-(1,10010)
         85          2         35      0.92331600                    1_GWF-(1,26422)  1.09511802E-02                    1_GWF-(1,10010)
         86          2         36      0.70234175                    1_GWF-(1,26350)  1.03931070E-02                    1_GWF-(1,10010)
         87          2         37      0.62523722                    1_GWF-(1,26486)  9.68722083E-03                    1_GWF-(1,10010)
         88          2         38      0.65987181                    1_GWF-(1,21744)  9.02197616E-03                    1_GWF-(1,11530)
         89          2         39      0.69224636                    1_GWF-(1,21740)  1.12080031E-02                    1_GWF-(1,11189)
         90          2         40      0.62275214                    1_GWF-(1,21704)  1.35853896E-02                    1_GWF-(1,11530)
         91          2         41     -0.46943917                    1_GWF-(1,26623)  1.38275488E-02                    1_GWF-(1,11189)
         92          2         42     -0.52178505                    1_GWF-(1,26588)  1.43278940E-02                    1_GWF-(1,11530)
         93          2         43     -0.49943260                    1_GWF-(1,26350)  1.33321634E-02                    1_GWF-(1,11189)
         94          2         44     -0.62905200                    1_GWF-(1,24835)  1.09662286E-02                    1_GWF-(1,11530)
         95          2         45     -0.75543561                    1_GWF-(1,24834)  9.54880714E-03                    1_GWF-(1,11189)
         96          2         46     -0.75478051                    1_GWF-(1,22359)  9.38619830E-03                    1_GWF-(1,10843)
         97          2         47     -0.91017541                    1_GWF-(1,22349)  1.12023248E-02                    1_GWF-(1,15108)
         98          2         48     -0.87420106                    1_GWF-(1,21767)  1.33459393E-02                    1_GWF-(1,15109)
         99          2         49     -0.74087837                    1_GWF-(1,21732)  1.19282690E-02                    1_GWF-(1,11530)
        100          2         50     -0.67185792                    1_GWF-(1,21723)  1.47114179E-02                    1_GWF-(1,11189)
        101          3          1      0.51303434                    1_GWF-(1,26673)  1.46454702E-02                    1_GWF-(1,11530)
        102          3          2      0.53058353                    1_GWF-(1,26672)  1.39991012E-02                    1_GWF-(1,11189)
        103          3          3      0.61667124                    1_GWF-(1,21738)  1.18562948E-02                    1_GWF-(1,11530)
        104          3          4      0.75163417                    1_GWF-(1,21762)  9.94294708E-03                    1_GWF-(1,15109)
        105          3          5      0.66939142                    1_GWF-(1,21764)  9.46466014E-03                    1_GWF-(1,10843)
        106          3          6      0.59100346                    1_GWF-(1,24835)  9.42027708E-03                    1_GWF-(1,10843)
        107          3          7      0.47703705                    1_GWF-(1,21671) -9.40578132E-03                    1_GWF-(1,15109)
        108          3          8      0.38195844                    1_GWF-(1,21696)  1.01681584E-02                    1_GWF-(1,11530)
        109          3          9     -0.38068106                    1_GWF-(1,26648)  1.15102247E-02                    1_GWF-(1,11189)
        110          3         10      0.38720824                    1_GWF-(1,26350)  1.26253709E-02                    1_GWF-(1,11530)
        111          3         11      0.41895050                    1_GWF-(1,26486)  1.35482606E-02                    1_GWF-(1,11189)
        112          3         12     -0.50854909                    1_GWF-(1,26422)  1.37400247E-02                    1_GWF-(1,11530)
        113          3         13      0.49141417                    1_GWF-(1,26422)  1.09787204E-02                    1_GWF-(1,11189)
        114          3         14      0.54877179                    1_GWF-(1,26350)  7.24305646E-03                    1_GWF-(1,10010)
        115          3         15     -0.59804674                    1_GWF-(1,26350)  7.46855832E-03                    1_GWF-(1,10010)
        116          3         16     -0.61335523                    1_GWF-(1,26422)  7.64760243E-03                    1_GWF-(1,10010)
        117          3         17     -0.38588790                    1_GWF-(1,26420)  8.26215487E-03                    1_GWF-(1,11530)
        118          3         18      0.34301435                    1_GWF-(1,26141)  9.95269853E-03                    1_GWF-(1,11189)
        119          3         19      0.42081202                    1_GWF-(1,26149)  1.00949639E-02                    1_GWF-(1,11530)
        120          3         20      0.40072666                    1_GWF-(1,26160)  9.48666087E-03                    1_GWF-(1,11189)
        121          3         21     -0.41879698                    1_GWF-(1,26420)  8.66246901E-03                    1_GWF-(1,10010)
        122          3         22      0.29282374                    1_GWF-(1,26649)  7.98593280E-03                    1_GWF-(1,10010)
        123          3         23      0.39434608                    1_GWF-(1,26487)  7.50251763E-03                    1_GWF-(1,10010)
        124          3         24      0.67056124                    1_GWF-(1,26486)  7.35320996E-03                    1_GWF-(1,10010)
        125          3         25      0.82256145                    1_GWF-(1,26487)  7.27226113E-03                    1_GWF-(1,10010)
        126          3         26      0.85480947                    1_GWF-(1,26420)  6.78307265E-03                    1_GWF-(1,10010)
        127          3         27      0.77104325                    1_GWF-(1,26487)  8.53094069E-03                     1_GWF-(1,9051)
        128          3         28      0.55335348                    1_GWF-(1,26486)  8.46255050E-03                     1_GWF-(1,9051)
        129          3         29     -0.82430126                    1_GWF-(1,26543)  6.51277040E-03                     1_GWF-(1,9029)
        130          3         30     -0.67961672                    1_GWF-(1,26588)  5.19847948E-03                     1_GWF-(1,9051)
        131          3         31      0.62912553                    1_GWF-(1,26588)  6.13047369E-03                     1_GWF-(1,9051)
        132          3         32     -0.54643468                    1_GWF-(1,26588)  8.14881468E-03                     1_GWF-(1,9051)
        133          3         33     -0.62910567                    1_GWF-(1,26422)  9.15034840E-03                     1_GWF-(1,9051)
        134          3         34     -0.62749178                    1_GWF-(1,26350)  7.47091618E-03                     1_GWF-(1,9029)
        135          3         35     -0.55269008                    1_GWF-(1,26622)  4.59681012E-03                     1_GWF-(1,9029)
        136          3         36      0.55431016                    1_GWF-(1,26622)  5.53766356E-03                     1_GWF-(1,9291)
        137          3         37      0.54339904                    1_GWF-(1,26649)  5.53507325E-03                     1_GWF-(1,9291)
        138          3         38      0.44286735                    1_GWF-(1,26622)  6.92048362E-03                     1_GWF-(1,9051)
        139          3         39      0.47240639                    1_GWF-(1,26217)  6.61553746E-03                     1_GWF-(1,9051)
        140          3         40     -0.53238341                    1_GWF-(1,26665)  5.43104075E-03                     1_GWF-(1,9291)
        141          3         41      0.55989872                    1_GWF-(1,26665)  6.45425105E-03                     1_GWF-(1,9291)
        142          3         42     -0.57455968                    1_GWF-(1,26665)  6.83715434E-03                     1_GWF-(1,9290)
        143          3         43      0.56223107                    1_GWF-(1,26486)  6.73213288E-03                     1_GWF-(1,9051)
        144          3         44      0.61805558                    1_GWF-(1,26543) -6.97052730E-03                    1_GWF-(1,11189)
        145          3         45      0.70627781                    1_GWF-(1,26649) -7.54468851E-03                    1_GWF-(1,15109)
        146          3         46      0.88565331                    1_GWF-(1,26648) -1.26415119E-02                    1_GWF-(1,15108)
        147          3         47      0.64627681                    1_GWF-(1,26640) -8.51589866E-03                    1_GWF-(1,15107)
        148          3         48      0.62554815                    1_GWF-(1,26634) -6.84236789E-03                    1_GWF-(1,15115)
        149          3         49     -0.76026500                    1_GWF-(1,26623) -8.40636267E-03                    1_GWF-(1,15109)
        150          3         50     -0.83124948                    1_GWF-(1,26586) -6.13679067E-03                    1_GWF-(1,11531)
        151          4          1     -0.28046242                    1_GWF-(1,26522)  4.31879134E-03                     1_GWF-(1,9290)
        152          4          2     -0.33077139                    1_GWF-(1,26482)  4.78408915E-03                     1_GWF-(1,9989)
        153          4          3     -0.32996405                    1_GWF-(1,26544) -4.22310816E-03                    1_GWF-(1,15109)
        154          4          4     -0.36483788                    1_GWF-(1,26586) -6.58002868E-03                    1_GWF-(1,15108)
        155          4          5     -0.31611938                    1_GWF-(1,26348) -3.71452472E-03                    1_GWF-(1,15109)
        156          4          6     -0.33740529                    1_GWF-(1,26218)  2.55287723E-03                     1_GWF-(1,9989)
        157          4          7     -0.28862441                    1_GWF-(1,26217)  2.86124010E-03                     1_GWF-(1,9290)
        158          4          8     -0.20619403                    1_GWF-(1,26218)  2.90026422E-03                     1_GWF-(1,9290)
        159          4          9     -0.16039337                    1_GWF-(1,26666)  3.00697788E-03                    1_GWF-(1,15108)
        160          4         10      0.20399022                    1_GWF-(1,26666)  2.74112395E-03                    1_GWF-(1,15109)
        161          4         11      0.27305635                    1_GWF-(1,26665)  2.74657967E-03                     1_GWF-(1,9051)
        162          4         12      0.16446832                    1_GWF-(1,26666)  3.04896329E-03                     1_GWF-(1,9051)
        163          4         13      0.17907079                    1_GWF-(1,26217)  2.54885922E-03                     1_GWF-(1,9051)
        164          4         14      0.19211724                    1_GWF-(1,26622)  2.02341024E-03                     1_GWF-(1,9051)
        165          4         15      0.19563114                    1_GWF-(1,26649)  2.33476606E-03                     1_GWF-(1,9029)
        166          4         16      0.19895959                    1_GWF-(1,26622)  3.39178977E-03                     1_GWF-(1,9051)
        167          4         17      0.16718698                    1_GWF-(1,26588)  4.25456066E-03                     1_GWF-(1,9051)
        168          4         18      0.14775304                    1_GWF-(1,26543)  3.96525929E-03                     1_GWF-(1,9051)
        169          4         19      0.14695671                    1_GWF-(1,26588)  2.66251744E-03                     1_GWF-(1,9051)
        170          4         20     -0.18190397                    1_GWF-(1,26588)  1.48510598E-03                     1_GWF-(1,9051)
        171          4         21     -0.20464809                    1_GWF-(1,26543)  1.49080151E-03                     1_GWF-(1,9051)
        172          4         22     -0.17198434                    1_GWF-(1,26588)  2.21296281E-03                     1_GWF-(1,9051)
        173          4         23     -0.19902050                    1_GWF-(1,26486)  2.41966809E-03                     1_GWF-(1,9051)
        174          4         24     -0.20000133                    1_GWF-(1,26487)  1.59983268E-03                     1_GWF-(1,9051)
        175          4         25     -0.17943043                    1_GWF-(1,26486)  9.58718025E-04                    1_GWF-(1,10011)
        176          4         26     -0.16892347                    1_GWF-(1,26487)  1.28628304E-03                    1_GWF-(1,10010)
        177          4         27     -0.13219696                    1_GWF-(1,26420)  1.19827208E-03                    1_GWF-(1,15108)
        178          4         28 -9.88072759E-02                    1_GWF-(1,26487)  9.23329003E-04                    1_GWF-(1,14938)
        179          4         29  7.84541691E-02                    1_GWF-(1,26623) -9.87203553E-04                    1_GWF-(1,11531)
        180          4         30  8.85895211E-02                    1_GWF-(1,26420)  1.42873695E-03                    1_GWF-(1,10011)
        181          4         31      0.10091926                    1_GWF-(1,26543)  1.77383299E-03                    1_GWF-(1,10010)
        182          4         32  9.80770437E-02                    1_GWF-(1,26544)  1.63037912E-03                    1_GWF-(1,10010)
        183          4         33  9.01680093E-02                    1_GWF-(1,26421)  1.71545078E-03                    1_GWF-(1,15107)
        184          4         34  8.57038602E-02                    1_GWF-(1,26420)  1.21672947E-03                    1_GWF-(1,15108)
        185          4         35  9.70295229E-02                    1_GWF-(1,26422)  1.15883006E-03                    1_GWF-(1,10010)
        186          4         36  9.07213515E-02                    1_GWF-(1,26350)  1.21206716E-03                    1_GWF-(1,10010)
        187          4         37 -7.09124433E-02                    1_GWF-(1,26350)  1.15250345E-03                    1_GWF-(1,10010)
        188          4         38 -6.94553764E-02                    1_GWF-(1,26422)  1.50841873E-03                    1_GWF-(1,15107)
        189          4         39 -6.30265253E-02                    1_GWF-(1,26544)  1.48598644E-03                    1_GWF-(1,14938)
        190          4         40 -6.28035119E-02                    1_GWF-(1,26486)  2.07110043E-03                    1_GWF-(1,15107)
        191          4         41 -6.72126021E-02                    1_GWF-(1,26350)  1.22808229E-03                    1_GWF-(1,15108)
        192          4         42 -6.09958417E-02                    1_GWF-(1,26422)  1.00347410E-03                    1_GWF-(1,10843)
        193          4         43 -3.47041002E-02                    1_GWF-(1,26350)  9.53748267E-04                    1_GWF-(1,10843)
        194          4         44 -3.72960927E-02                    1_GWF-(1,26486)  9.01220362E-04                    1_GWF-(1,10843)
        195          4         45 -4.58584318E-02                    1_GWF-(1,26543)  7.56559201E-04                    1_GWF-(1,10843)
        196          4         46 -5.96803203E-02                    1_GWF-(1,26588)  8.27223000E-04                    1_GWF-(1,15109)
        197          4         47 -5.66445270E-02                    1_GWF-(1,21738)  7.85755541E-04                    1_GWF-(1,15108)
        198          4         48  6.87323310E-02                    1_GWF-(1,26672)  9.17427623E-04                    1_GWF-(1,15109)
        199          4         49 -8.13057910E-02                    1_GWF-(1,26672)  1.05714980E-03                    1_GWF-(1,15108)
        200          4         50 -7.56043548E-02                    1_GWF-(1,26673)  1.10528599E-03                    1_GWF-(1,11531)
        201          5          1  7.12088633E-02                    1_GWF-(1,26673)  9.69936854E-04                    1_GWF-(1,10843)
        202          5          2  7.05218167E-02                    1_GWF-(1,26672)  1.37805217E-03                    1_GWF-(1,15109)
        203          5          3 -6.57109624E-02                    1_GWF-(1,26672)  1.53003044E-03                    1_GWF-(1,15108)
        204          5          4  5.63718096E-02                    1_GWF-(1,21762)  1.06206245E-03                    1_GWF-(1,15109)
        205          5          5  4.23882016E-02                    1_GWF-(1,24899)  9.14027270E-04                    1_GWF-(1,10843)
        206          5          6  3.94343662E-02                    1_GWF-(1,21667)  9.91992888E-04                    1_GWF-(1,10843)
        207          5          7  3.12803617E-02                    1_GWF-(1,21542)  9.68584261E-04                    1_GWF-(1,10844)
        208          5          8 -3.06562508E-02                    1_GWF-(1,26586)  9.87173380E-04                    1_GWF-(1,10843)
        209          5          9  3.66554166E-02                    1_GWF-(1,26422)  1.11117451E-03                    1_GWF-(1,15108)
        210          5         10  3.32025186E-02                    1_GWF-(1,26350)  1.24970544E-03                    1_GWF-(1,15107)
        211          5         11  3.56721895E-02                    1_GWF-(1,26486)  8.87924809E-04                    1_GWF-(1,15109)
        212          5         12 -4.44294751E-02                    1_GWF-(1,26422)  1.14463494E-03                    1_GWF-(1,15109)
        213          5         13 -4.83495020E-02                    1_GWF-(1,26350)  9.22939369E-04                    1_GWF-(1,15109)
        214          5         14 -5.90557690E-02                    1_GWF-(1,26422)  9.80634640E-04                    1_GWF-(1,15107)
        215          5         15 -6.57349098E-02                    1_GWF-(1,26350)  1.04999684E-03                    1_GWF-(1,15109)
        216          5         16 -5.82374889E-02                    1_GWF-(1,26422)  8.92635882E-04                    1_GWF-(1,15108)
        217          5         17 -4.42689337E-02                    1_GWF-(1,26586)  8.39168958E-04                    1_GWF-(1,10011)
        218          5         18 -4.30377733E-02                    1_GWF-(1,26623)  1.11960191E-03                    1_GWF-(1,10010)
        219          5         19 -6.48898311E-02                    1_GWF-(1,26544)  1.40311402E-03                    1_GWF-(1,10010)
        220          5         20 -6.06008119E-02                    1_GWF-(1,26486)  1.26006533E-03                    1_GWF-(1,10010)
        221          5         21 -5.28184304E-02                    1_GWF-(1,26649)  8.81919995E-04                    1_GWF-(1,10010)
        222          5         22  6.41127422E-02                    1_GWF-(1,26588)  7.67116363E-04                    1_GWF-(1,10010)
        223          5         23  5.66027684E-02                    1_GWF-(1,26543)  9.01884464E-04                    1_GWF-(1,10010)
        224          5         24  7.58914667E-02                    1_GWF-(1,26623)  9.59270661E-04                    1_GWF-(1,10010)
        225          5         25  7.79014990E-02                    1_GWF-(1,26586)  7.44584388E-04                    1_GWF-(1,10010)
        226          5         26  6.36123753E-02                    1_GWF-(1,26543)  7.95970873E-04                     1_GWF-(1,9051)
        227          5         27  6.21703880E-02                    1_GWF-(1,26420)  9.99050011E-04                     1_GWF-(1,9051)
        228          5         28 -6.26441638E-02                    1_GWF-(1,26588)  9.01921056E-04                     1_GWF-(1,9051)
        229          5         29 -7.89887176E-02                    1_GWF-(1,26543)  7.77165599E-04                     1_GWF-(1,9051)
        230          5         30 -7.04094747E-02                    1_GWF-(1,26648)  9.44335051E-04                     1_GWF-(1,9051)
        231          5         31 -9.27653167E-02                    1_GWF-(1,26649)  1.32280021E-03                     1_GWF-(1,9051)
        232          5         32 -5.53288951E-02                    1_GWF-(1,26622)  1.51350176E-03                     1_GWF-(1,9051)
        233          5         33 -5.92978758E-02                    1_GWF-(1,26217)  1.37197319E-03                     1_GWF-(1,9051)
        234          5         34 -6.60182123E-02                    1_GWF-(1,26421)  1.13881175E-03                     1_GWF-(1,9051)
        235          5         35 -9.00072353E-02                    1_GWF-(1,26420)  1.01284897E-03                     1_GWF-(1,9051)
        236          5         36 -9.26086616E-02                    1_GWF-(1,26487)  9.77203712E-04                     1_GWF-(1,9051)
        237          5         37 -6.65376864E-02                    1_GWF-(1,26486)  8.88714432E-04                     1_GWF-(1,9051)
        238          5         38 -4.24584898E-02                    1_GWF-(1,26422)  7.75956340E-04                     1_GWF-(1,9052)
        239          5         39 -5.33870514E-02                    1_GWF-(1,26666)  7.71913464E-04                    1_GWF-(1,15109)
        240          5         40 -6.54381444E-02                    1_GWF-(1,26665)  6.38724895E-04                    1_GWF-(1,15107)
        241          5         41  4.53084458E-02                    1_GWF-(1,26218)  8.82468278E-04                    1_GWF-(1,15107)
        242          5         42 -4.04813468E-02                    1_GWF-(1,26665)  7.57379968E-04                     1_GWF-(1,9290)
        243          5         43  3.92532182E-02                    1_GWF-(1,26402)  8.24838775E-04                     1_GWF-(1,8949)
        244          5         44  5.53482255E-02                    1_GWF-(1,26217)  7.38988257E-04                     1_GWF-(1,9291)
        245          5         45  5.62925072E-02                    1_GWF-(1,26542) -8.84643453E-04                    1_GWF-(1,15109)
        246          5         46  5.49543736E-02                    1_GWF-(1,26543) -1.13605042E-03                    1_GWF-(1,15108)
        247          5         47  5.47472048E-02                    1_GWF-(1,26218) -8.12079297E-04                    1_GWF-(1,15107)
        248          5         48  4.86472089E-02                    1_GWF-(1,26217) -8.04231792E-04                    1_GWF-(1,15117)
        249          5         49 -4.68098255E-02                    1_GWF-(1,26623) -9.35933903E-04                    1_GWF-(1,15107)
        250          5         50 -5.17276630E-02                    1_GWF-(1,26586) -8.91628341E-04                    1_GWF-(1,14938)
        251          6          1 -3.17661077E-02                    1_GWF-(1,26522)  7.71997996E-04                     1_GWF-(1,9291)
        252          6          2 -3.55635895E-02                    1_GWF-(1,26482) -7.80174504E-04                    1_GWF-(1,15115)
        253          6          3 -3.82204181E-02                    1_GWF-(1,26217) -7.95105394E-04                    1_GWF-(1,15107)
        254          6          4 -4.28860546E-02                    1_GWF-(1,26218) -8.75839074E-04                    1_GWF-(1,15108)
        255          6          5 -4.24798714E-02                    1_GWF-(1,26348) -7.97639290E-04                    1_GWF-(1,15109)
        256          6          6 -4.42114286E-02                    1_GWF-(1,26218)  5.72567737E-04                     1_GWF-(1,9291)
        257          6          7 -3.71626273E-02                    1_GWF-(1,26217)  6.01866961E-04                     1_GWF-(1,9291)
        258          6          8 -2.41160362E-02                    1_GWF-(1,26218)  5.46633869E-04                     1_GWF-(1,8949)
        259          6          9  2.16910586E-02                    1_GWF-(1,24910)  4.16496678E-04                     1_GWF-(1,9291)
        260          6         10 -2.35300605E-02                    1_GWF-(1,26665)  3.66561377E-04                     1_GWF-(1,9029)
        261          6         11  3.04093022E-02                    1_GWF-(1,26665)  4.45702451E-04                     1_GWF-(1,9051)
        262          6         12  2.52753067E-02                    1_GWF-(1,26218)  4.54116761E-04                     1_GWF-(1,9051)
        263          6         13  3.02198348E-02                    1_GWF-(1,26422)  3.94157583E-04                     1_GWF-(1,9051)
        264          6         14  3.27045349E-02                    1_GWF-(1,26486)  3.65201299E-04                     1_GWF-(1,9051)
        265          6         15  4.00129445E-02                    1_GWF-(1,26487)  3.84808093E-04                     1_GWF-(1,9051)
        266          6         16  3.15172172E-02                    1_GWF-(1,26486)  4.33723587E-04                     1_GWF-(1,9051)
        267          6         17 -2.43497162E-02                    1_GWF-(1,26665)  4.81692020E-04                     1_GWF-(1,9051)
        268          6         18  1.85416329E-02                    1_GWF-(1,26665)  4.74960423E-04                     1_GWF-(1,9051)
        269          6         19  1.65882120E-02                    1_GWF-(1,26622)  3.52548011E-04                     1_GWF-(1,9051)
        270          6         20  2.72481922E-02                    1_GWF-(1,26649)  2.24366191E-04                    1_GWF-(1,10010)
        271          6         21 -2.46819421E-02                    1_GWF-(1,26543)  3.31963107E-04                    1_GWF-(1,10010)
        272          6         22 -2.57499220E-02                    1_GWF-(1,26588)  3.59435006E-04                    1_GWF-(1,10010)
        273          6         23 -2.19621448E-02                    1_GWF-(1,26543)  2.92804038E-04                    1_GWF-(1,10010)
        274          6         24 -1.96708947E-02                    1_GWF-(1,26542)  2.43245974E-04                    1_GWF-(1,10011)
        275          6         25 -1.81621615E-02                    1_GWF-(1,26623)  3.02785788E-04                    1_GWF-(1,10011)
        276          6         26 -1.88620132E-02                    1_GWF-(1,26586)  3.56549440E-04                    1_GWF-(1,10010)
        277          6         27 -1.40597980E-02                    1_GWF-(1,26623)  3.02464547E-04                     1_GWF-(1,9989)
        278          6         28  1.96773694E-02                    1_GWF-(1,26588)  2.09471792E-04                    1_GWF-(1,10010)
        279          6         29  1.79421722E-02                    1_GWF-(1,26543)  2.24361537E-04                    1_GWF-(1,10010)
        280          6         30  1.67463343E-02                    1_GWF-(1,26542)  3.23958482E-04                    1_GWF-(1,10010)
        281          6         31  1.91600818E-02                    1_GWF-(1,26486)  3.59592500E-04                    1_GWF-(1,10010)
        282          6         32  1.55786240E-02                    1_GWF-(1,26544)  2.94184300E-04                    1_GWF-(1,10010)
        283          6         33  1.24138275E-02                    1_GWF-(1,26422)  1.98991755E-04                    1_GWF-(1,10011)
        284          6         34  1.16225511E-02                    1_GWF-(1,26350)  1.72384156E-04                    1_GWF-(1,10011)
        285          6         35  1.28465477E-02                    1_GWF-(1,26422)  1.64328973E-04                    1_GWF-(1,10010)
        286          6         36  1.22840212E-02                    1_GWF-(1,26350)  1.58949030E-04                    1_GWF-(1,10010)
        287          6         37 -1.27503074E-02                    1_GWF-(1,26350)  1.20007480E-04                     1_GWF-(1,9817)
        288          6         38 -1.32613380E-02                    1_GWF-(1,26422)  1.40125757E-04                    1_GWF-(1,15107)
        289          6         39 -1.07350783E-02                    1_GWF-(1,26544)  1.51625163E-04                    1_GWF-(1,14938)
        290          6         40 -9.21160611E-03                    1_GWF-(1,26486)  2.24919357E-04                    1_GWF-(1,15107)
        291          6         41 -8.34179759E-03                    1_GWF-(1,26350)  1.42737948E-04                    1_GWF-(1,10842)
        292          6         42 -7.65554649E-03                    1_GWF-(1,26422)  1.64927906E-04                    1_GWF-(1,10843)
        293          6         43 -4.79684211E-03                    1_GWF-(1,21188)  1.83433697E-04                    1_GWF-(1,10844)
        294          6         44 -5.15218223E-03                    1_GWF-(1,21539)  2.02471540E-04                    1_GWF-(1,10843)
        295          6         45 -5.71484938E-03                    1_GWF-(1,21667)  1.77381931E-04                    1_GWF-(1,10843)
        296          6         46 -6.98802002E-03                    1_GWF-(1,26588)  1.52122575E-04                    1_GWF-(1,10843)
        297          6         47 -7.05790483E-03                    1_GWF-(1,26672)  1.44650503E-04                    1_GWF-(1,10843)
        298          6         48  1.04739163E-02                    1_GWF-(1,26672)  1.61260909E-04                    1_GWF-(1,10844)
        299          6         49 -9.87377798E-03                    1_GWF-(1,26672)  1.87993496E-04                    1_GWF-(1,10843)
        300          6         50 -1.03416803E-02                    1_GWF-(1,26673)  1.79037616E-04                    1_GWF-(1,10843)
        301          7          1  1.01005766E-02                    1_GWF-(1,26673)  1.65692372E-04                    1_GWF-(1,10843)
        302          7          2  9.51732311E-03                    1_GWF-(1,26672)  1.98088253E-04                    1_GWF-(1,15109)
        303          7          3 -9.91129465E-03                    1_GWF-(1,26672)  2.02574662E-04                    1_GWF-(1,15108)
        304          7          4  7.82181650E-03                    1_GWF-(1,21762)  1.50886347E-04                    1_GWF-(1,10843)
        305          7          5  6.05053643E-03                    1_GWF-(1,24900)  1.64979726E-04                    1_GWF-(1,10843)
        306          7          6  5.79719088E-03                    1_GWF-(1,21667)  1.75026528E-04                    1_GWF-(1,10843)
        307          7          7 -4.92701424E-03                    1_GWF-(1,26623)  1.57813081E-04                    1_GWF-(1,10844)
        308          7          8 -4.74376015E-03                    1_GWF-(1,26586)  1.43536244E-04                    1_GWF-(1,10843)
        309          7          9  4.95505191E-03                    1_GWF-(1,26422)  1.50742979E-04                    1_GWF-(1,15108)
        310          7         10  4.59141740E-03                    1_GWF-(1,26623)  1.35126042E-04                    1_GWF-(1,15107)
        311          7         11  5.51358003E-03                    1_GWF-(1,26486)  1.00706709E-04                    1_GWF-(1,10844)
        312          7         12 -6.84938392E-03                    1_GWF-(1,26422)  1.16872681E-04                    1_GWF-(1,15109)
        313          7         13  8.99590744E-03                    1_GWF-(1,26422)  9.96793434E-05                     1_GWF-(1,9817)
        314          7         14  9.33820200E-03                    1_GWF-(1,26350)  1.23000900E-04                    1_GWF-(1,10010)
        315          7         15  1.02277464E-02                    1_GWF-(1,26422)  1.22036361E-04                    1_GWF-(1,10010)
        316          7         16 -7.94701220E-03                    1_GWF-(1,26422)  1.17749228E-04                    1_GWF-(1,10011)
        317          7         17 -8.16061603E-03                    1_GWF-(1,26420)  1.19711104E-04                    1_GWF-(1,10010)
        318          7         18 -6.90175727E-03                    1_GWF-(1,26487)  1.72711680E-04                    1_GWF-(1,10010)
        319          7         19 -1.23020494E-02                    1_GWF-(1,26486)  2.21618632E-04                    1_GWF-(1,10010)
        320          7         20 -1.48054743E-02                    1_GWF-(1,26487)  2.29142149E-04                    1_GWF-(1,10010)
        321          7         21 -1.43602785E-02                    1_GWF-(1,26486) -1.82509005E-04                    1_GWF-(1,15109)
        322          7         22  9.96503102E-03                    1_GWF-(1,26486) -1.11930337E-04                    1_GWF-(1,15022)
        323          7         23  8.08568455E-03                    1_GWF-(1,26649)  1.45231324E-04                    1_GWF-(1,10010)
        324          7         24  7.03356034E-03                    1_GWF-(1,26620)  1.73225137E-04                     1_GWF-(1,9989)
        325          7         25  1.01267525E-02                    1_GWF-(1,26649)  1.51148648E-04                    1_GWF-(1,10011)
        326          7         26  1.09089293E-02                    1_GWF-(1,26622)  1.27772452E-04                    1_GWF-(1,10010)
        327          7         27 -1.08213575E-02                    1_GWF-(1,26622)  1.23534375E-04                    1_GWF-(1,10010)
        328          7         28 -1.07242496E-02                    1_GWF-(1,26623)  1.42666345E-04                    1_GWF-(1,10010)
        329          7         29  8.12397206E-03                    1_GWF-(1,26623)  1.47616589E-04                    1_GWF-(1,10010)
        330          7         30  6.81579547E-03                    1_GWF-(1,25335)  1.22037323E-04                    1_GWF-(1,14938)
        331          7         31  6.60147864E-03                    1_GWF-(1,25323)  1.67493001E-04                     1_GWF-(1,9051)
        332          7         32 -7.77253075E-03                    1_GWF-(1,26623)  1.95554970E-04                     1_GWF-(1,9051)
        333          7         33 -7.32941814E-03                    1_GWF-(1,26217)  1.80168901E-04                     1_GWF-(1,9051)
        334          7         34  8.70506045E-03                    1_GWF-(1,26665)  1.64001194E-04                     1_GWF-(1,9051)
        335          7         35 -9.65060913E-03                    1_GWF-(1,26665)  1.63480711E-04                     1_GWF-(1,9051)
        336          7         36  9.42569889E-03                    1_GWF-(1,26665)  2.16033292E-04                    1_GWF-(1,15107)
        337          7         37 -6.58928516E-03                    1_GWF-(1,26218)  1.41984039E-04                     1_GWF-(1,9051)
        338          7         38 -7.23442096E-03                    1_GWF-(1,26217)  1.38459115E-04                    1_GWF-(1,15110)
        339          7         39  7.95870710E-03                    1_GWF-(1,26217)  1.20333074E-04                    1_GWF-(1,15109)
        340          7         40  9.29449187E-03                    1_GWF-(1,26218)  1.41468050E-04                    1_GWF-(1,15107)
        341          7         41  6.62184037E-03                    1_GWF-(1,26543)  1.62504166E-04                    1_GWF-(1,15107)
        342          7         42  9.21387721E-03                    1_GWF-(1,26588)  1.33819868E-04                     1_GWF-(1,8949)
        343          7         43  8.00380609E-03                    1_GWF-(1,26543)  1.47525855E-04                     1_GWF-(1,8949)
        344          7         44  8.89631293E-03                    1_GWF-(1,26588)  1.43494407E-04                     1_GWF-(1,9291)
        345          7         45  8.51255744E-03                    1_GWF-(1,26589) -1.51772881E-04                    1_GWF-(1,15109)
        346          7         46  7.80683406E-03                    1_GWF-(1,26588) -1.70308150E-04                    1_GWF-(1,15108)
        347          7         47  7.55235180E-03                    1_GWF-(1,26218) -1.52601676E-04                    1_GWF-(1,15107)
        348          7         48  7.25764951E-03                    1_GWF-(1,26217)  1.44805400E-04                     1_GWF-(1,8949)
        349          7         49 -6.81405220E-03                    1_GWF-(1,26623) -1.85987606E-04                    1_GWF-(1,15107)
        350          7         50 -7.47313099E-03                    1_GWF-(1,26586) -1.74678900E-04                    1_GWF-(1,14938)
        351          8          1 -4.66278871E-03                    1_GWF-(1,26384) -1.73678298E-04                    1_GWF-(1,15107)
        352          8          2  4.53210479E-03                    1_GWF-(1,21652) -1.28439507E-04                    1_GWF-(1,15115)
        353          8          3 -5.87435516E-03                    1_GWF-(1,26217) -1.52169395E-04                    1_GWF-(1,15107)
        354          8          4 -6.53763761E-03                    1_GWF-(1,26218) -1.29950992E-04                    1_GWF-(1,15022)
        355          8          5 -6.12862051E-03                    1_GWF-(1,26348) -1.14872163E-04                    1_GWF-(1,15107)
        356          8          6 -5.99121023E-03                    1_GWF-(1,26218)  9.11966213E-05                     1_GWF-(1,9290)
        357          8          7 -4.79432255E-03                    1_GWF-(1,26217)  1.09883642E-04                     1_GWF-(1,9291)
        358          8          8  4.14501875E-03                    1_GWF-(1,26588)  9.14105498E-05                     1_GWF-(1,8949)
        359          8          9 -5.11281556E-03                    1_GWF-(1,26588)  8.96945384E-05                    1_GWF-(1,15107)
        360          8         10 -3.67405833E-03                    1_GWF-(1,26543)  6.68566645E-05                    1_GWF-(1,15022)
        361          8         11  3.11515917E-03                    1_GWF-(1,26543)  6.65169007E-05                     1_GWF-(1,9051)
        362          8         12  5.98509759E-03                    1_GWF-(1,26218)  7.24307235E-05                     1_GWF-(1,9051)
        363          8         13  5.28823039E-03                    1_GWF-(1,26217)  6.78226300E-05                     1_GWF-(1,9051)
        364          8         14  3.60516697E-03                    1_GWF-(1,26218)  9.93033710E-05                    1_GWF-(1,15107)
        365          8         15 -3.49419114E-03                    1_GWF-(1,26665)  6.52135268E-05                     1_GWF-(1,9051)
        366          8         16  4.16008750E-03                    1_GWF-(1,26665)  6.05102215E-05                     1_GWF-(1,9051)
        367          8         17 -3.40106212E-03                    1_GWF-(1,26665)  6.67617665E-05                    1_GWF-(1,15109)
        368          8         18  2.83820748E-03                    1_GWF-(1,26588)  7.28636491E-05                    1_GWF-(1,15109)
        369          8         19  2.79380320E-03                    1_GWF-(1,26623)  6.63212098E-05                    1_GWF-(1,15107)
        370          8         20 -2.32312631E-03                    1_GWF-(1,26218)  5.42215193E-05                    1_GWF-(1,15109)
        371          8         21 -3.18050507E-03                    1_GWF-(1,26586)  7.53703391E-05                    1_GWF-(1,15107)
        372          8         22 -3.73668787E-03                    1_GWF-(1,26623)  6.27276377E-05                    1_GWF-(1,10010)
        373          8         23 -3.70323044E-03                    1_GWF-(1,26622)  4.66676785E-05                    1_GWF-(1,10010)
        374          8         24 -3.90253028E-03                    1_GWF-(1,26649)  4.10689264E-05                    1_GWF-(1,10010)
        375          8         25 -3.64450143E-03                    1_GWF-(1,26622)  5.04225634E-05                    1_GWF-(1,10011)
        376          8         26 -2.89254289E-03                    1_GWF-(1,26649)  5.56856053E-05                     1_GWF-(1,9989)
        377          8         27  2.14441893E-03                    1_GWF-(1,26649)  4.15887853E-05                     1_GWF-(1,9989)
        378          8         28  2.13655002E-03                    1_GWF-(1,26543)  3.99025752E-05                    1_GWF-(1,15107)
        379          8         29  2.43525397E-03                    1_GWF-(1,26544) -3.86401980E-05                    1_GWF-(1,15107)
        380          8         30  4.41145409E-03                    1_GWF-(1,26486)  5.27190690E-05                    1_GWF-(1,10010)
        381          8         31  4.16114375E-03                    1_GWF-(1,26487)  5.32742408E-05                    1_GWF-(1,10010)
        382          8         32  3.07788158E-03                    1_GWF-(1,26486)  4.05264049E-05                    1_GWF-(1,10010)
        383          8         33  2.15779095E-03                    1_GWF-(1,26421)  2.97442816E-05                    1_GWF-(1,15107)
        384          8         34  2.01369366E-03                    1_GWF-(1,26420)  2.32192643E-05                    1_GWF-(1,10011)
        385          8         35  1.91921380E-03                    1_GWF-(1,26422)  2.37483425E-05                    1_GWF-(1,15107)
        386          8         36 -2.33022248E-03                    1_GWF-(1,26422)  2.48681515E-05                     1_GWF-(1,9988)
        387          8         37 -2.46387001E-03                    1_GWF-(1,26350)  2.26976360E-05                    1_GWF-(1,14938)
        388          8         38 -2.54081701E-03                    1_GWF-(1,26422)  3.83412412E-05                    1_GWF-(1,15107)
        389          8         39 -1.90408750E-03                    1_GWF-(1,26350)  3.68254953E-05                    1_GWF-(1,14938)
        390          8         40 -1.54727833E-03                    1_GWF-(1,26486)  6.10472559E-05                    1_GWF-(1,15107)
        391          8         41 -1.19341803E-03                    1_GWF-(1,26350)  3.63256554E-05                    1_GWF-(1,14938)
        392          8         42 -1.09077428E-03                    1_GWF-(1,26422)  4.48603938E-05                    1_GWF-(1,15107)
        393          8         43  7.96197147E-04                    1_GWF-(1,22908)  3.00571637E-05                    1_GWF-(1,10844)
        394          8         44  9.55103227E-04                    1_GWF-(1,26350)  3.78620833E-05                    1_GWF-(1,15107)
        395          8         45  9.21596003E-04                    1_GWF-(1,23282)  3.13312185E-05                    1_GWF-(1,10843)
        396          8         46 -8.55632552E-04                    1_GWF-(1,26673)  3.98705060E-05                    1_GWF-(1,15107)
        397          8         47 -1.25138136E-03                    1_GWF-(1,26672)  3.49480806E-05                    1_GWF-(1,15108)
        398          8         48  1.72311742E-03                    1_GWF-(1,26672)  3.91665018E-05                    1_GWF-(1,15109)
        399          8         49 -1.48349913E-03                    1_GWF-(1,26672)  3.21919761E-05                    1_GWF-(1,10843)
        400          8         50 -1.63165414E-03                    1_GWF-(1,26673)  3.19377507E-05                    1_GWF-(1,10843)
        401          9          1  1.62397949E-03                    1_GWF-(1,26673)  3.26938555E-05                    1_GWF-(1,15107)
        402          9          2  1.45899617E-03                    1_GWF-(1,26672)  4.38007833E-05                    1_GWF-(1,15109)
        403          9          3 -1.65208540E-03                    1_GWF-(1,26672)  4.45301688E-05                    1_GWF-(1,15108)
        404          9          4  1.20086979E-03                    1_GWF-(1,26672)  3.27584511E-05                    1_GWF-(1,15109)
        405          9          5  8.47939178E-04                    1_GWF-(1,24900)  2.90711776E-05                    1_GWF-(1,10843)
        406          9          6 -8.62280103E-04                    1_GWF-(1,23282)  3.12939539E-05                    1_GWF-(1,10843)
        407          9          7 -9.06897519E-04                    1_GWF-(1,26543)  2.60002013E-05                    1_GWF-(1,10842)
        408          9          8 -8.06336439E-04                    1_GWF-(1,26586)  3.41300849E-05                    1_GWF-(1,15109)
        409          9          9 -7.54894330E-04                    1_GWF-(1,26648)  3.29108563E-05                    1_GWF-(1,15108)
        410          9         10  8.08434145E-04                    1_GWF-(1,26623)  3.04932401E-05                    1_GWF-(1,15107)
        411          9         11  1.30489254E-03                    1_GWF-(1,26486)  1.95693938E-05                    1_GWF-(1,14938)
        412          9         12  1.55489561E-03                    1_GWF-(1,26544)  2.33728437E-05                    1_GWF-(1,15109)
        413          9         13  1.99752403E-03                    1_GWF-(1,26486)  1.58602295E-05                    1_GWF-(1,15108)
        414          9         14  2.02733293E-03                    1_GWF-(1,26487)  1.81505903E-05                    1_GWF-(1,10010)
        415          9         15  1.73778855E-03                    1_GWF-(1,26486)  1.67153074E-05                    1_GWF-(1,10011)
        416          9         16  1.30078423E-03                    1_GWF-(1,26487)  1.55458370E-05                    1_GWF-(1,10011)
        417          9         17 -1.45380657E-03                    1_GWF-(1,26422)  1.52475377E-05                    1_GWF-(1,10011)
        418          9         18 -1.54838856E-03                    1_GWF-(1,26350)  2.18730445E-05                    1_GWF-(1,10010)
        419          9         19 -1.88601810E-03                    1_GWF-(1,26588)  3.17773230E-05                    1_GWF-(1,10010)
        420          9         20 -1.67527226E-03                    1_GWF-(1,26543)  3.68798678E-05                    1_GWF-(1,10010)
        421          9         21 -1.92452691E-03                    1_GWF-(1,26588)  3.00804475E-05                    1_GWF-(1,10010)
        422          9         22 -2.37027927E-03                    1_GWF-(1,26422)  1.74369904E-05                    1_GWF-(1,10010)
        423          9         23 -2.49826469E-03                    1_GWF-(1,26350)  1.76190737E-05                    1_GWF-(1,10011)
        424          9         24  1.61256024E-03                    1_GWF-(1,26420)  2.83673067E-05                    1_GWF-(1,10011)
        425          9         25 -1.59180692E-03                    1_GWF-(1,26649)  2.97656029E-05                    1_GWF-(1,10011)
        426          9         26  1.90950212E-03                    1_GWF-(1,26649)  2.47382596E-05                    1_GWF-(1,10010)
        427          9         27 -2.14840680E-03                    1_GWF-(1,26649)  2.37558803E-05                    1_GWF-(1,10010)
        428          9         28  2.04427668E-03                    1_GWF-(1,26486)  2.73529834E-05                    1_GWF-(1,10010)
        429          9         29  1.45127693E-03                    1_GWF-(1,26544)  3.18280217E-05                    1_GWF-(1,10010)
        430          9         30  1.39499231E-03                    1_GWF-(1,26623)  4.03603212E-05                    1_GWF-(1,15107)
        431          9         31  1.02653534E-03                    1_GWF-(1,25328)  2.72349694E-05                    1_GWF-(1,15022)
        432          9         32  8.84702442E-04                    1_GWF-(1,25237)  4.22169398E-05                    1_GWF-(1,15107)
        433          9         33 -9.56614406E-04                    1_GWF-(1,26218)  3.49071286E-05                    1_GWF-(1,14938)
        434          9         34 -1.22807498E-03                    1_GWF-(1,26348)  3.04941062E-05                    1_GWF-(1,15107)
        435          9         35 -1.48440021E-03                    1_GWF-(1,26218)  2.55091379E-05                    1_GWF-(1,15022)
        436          9         36 -1.45903133E-03                    1_GWF-(1,26217)  4.40095607E-05                    1_GWF-(1,15107)
        437          9         37 -1.31213304E-03                    1_GWF-(1,26218)  2.58293455E-05                     1_GWF-(1,9052)
        438          9         38 -1.43171027E-03                    1_GWF-(1,26217)  2.23781879E-05                     1_GWF-(1,9051)
        439          9         39 -1.33355975E-03                    1_GWF-(1,26218)  1.55205350E-05                     1_GWF-(1,9292)
        440          9         40  1.36084362E-03                    1_GWF-(1,26218)  1.76798091E-05                    1_GWF-(1,15022)
        441          9         41 -9.86130819E-04                    1_GWF-(1,26665)  2.98235288E-05                    1_GWF-(1,15107)
        442          9         42  1.30280196E-03                    1_GWF-(1,26674)  2.45314234E-05                     1_GWF-(1,8952)
        443          9         43 -1.46986300E-03                    1_GWF-(1,26665)  3.69927715E-05                     1_GWF-(1,9291)
        444          9         44  1.67615835E-03                    1_GWF-(1,26665)  2.46031387E-05                     1_GWF-(1,9292)
        445          9         45  1.20926898E-03                    1_GWF-(1,26666) -2.84869624E-05                    1_GWF-(1,15109)
        446          9         46  1.03628586E-03                    1_GWF-(1,26665) -2.99140704E-05                    1_GWF-(1,15022)
        447          9         47  1.27496997E-03                    1_GWF-(1,26218) -3.48675395E-05                    1_GWF-(1,15107)
        448          9         48  1.29755879E-03                    1_GWF-(1,26217)  4.21185397E-05                     1_GWF-(1,9291)
        449          9         49  8.21959512E-04                    1_GWF-(1,26218) -4.42699179E-05                    1_GWF-(1,15107)
        450          9         50 -9.69538252E-04                    1_GWF-(1,26586)  5.24093237E-05                     1_GWF-(1,9291)
        451         10          1 -7.68423194E-04                    1_GWF-(1,26384) -4.20694935E-05                    1_GWF-(1,15107)
        452         10          2  7.34530017E-04                    1_GWF-(1,21652)  4.66797441E-05                     1_GWF-(1,9291)
        453         10          3 -1.02857290E-03                    1_GWF-(1,26217) -3.47380168E-05                    1_GWF-(1,15107)
        454         10          4 -1.11520742E-03                    1_GWF-(1,26218)  3.76672051E-05                     1_GWF-(1,9291)
        455         10          5 -9.64345007E-04                    1_GWF-(1,26348)  2.80959287E-05                     1_GWF-(1,9292)
        456         10          6 -8.36205689E-04                    1_GWF-(1,26218)  3.19067291E-05                     1_GWF-(1,9291)
        457         10          7 -1.03500974E-03                    1_GWF-(1,26665)  1.83352799E-05                     1_GWF-(1,8952)
        458         10          8  9.28777886E-04                    1_GWF-(1,26665)  1.52985425E-05                     1_GWF-(1,8949)
        459         10          9 -7.97983188E-04                    1_GWF-(1,26674)  2.13893513E-05                     1_GWF-(1,9291)
        460         10         10  5.41098404E-04                    1_GWF-(1,26665)  1.87442871E-05                     1_GWF-(1,9292)
        461         10         11  5.16182132E-04                    1_GWF-(1,26217)  2.19712980E-05                     1_GWF-(1,9291)
        462         10         12  9.96864531E-04                    1_GWF-(1,26218)  1.30609592E-05                     1_GWF-(1,9052)
        463         10         13  8.36109377E-04                    1_GWF-(1,26217)  1.32806954E-05                     1_GWF-(1,9051)
        464         10         14  6.67852842E-04                    1_GWF-(1,26487)  1.43615507E-05                    1_GWF-(1,15107)
        465         10         15  8.89047537E-04                    1_GWF-(1,26486)  1.05048936E-05                     1_GWF-(1,9051)
        466         10         16  8.55069337E-04                    1_GWF-(1,26487)  1.03158159E-05                     1_GWF-(1,9051)
        467         10         17  5.43936352E-04                    1_GWF-(1,26486)  9.29939731E-06                     1_GWF-(1,9052)
        468         10         18  4.29182773E-04                    1_GWF-(1,26588)  1.02491924E-05                    1_GWF-(1,14938)
        469         10         19 -3.42732181E-04                    1_GWF-(1,26217)  1.32662424E-05                    1_GWF-(1,15107)
        470         10         20  3.57922086E-04                    1_GWF-(1,26649)  1.01824503E-05                    1_GWF-(1,14938)
        471         10         21 -4.26535302E-04                    1_GWF-(1,26588)  1.60887675E-05                    1_GWF-(1,15107)
        472         10         22 -5.27484510E-04                    1_GWF-(1,26487)  1.17894778E-05                    1_GWF-(1,10010)
        473         10         23 -6.99849049E-04                    1_GWF-(1,26486)  9.91214999E-06                     1_GWF-(1,9291)
        474         10         24 -8.23036776E-04                    1_GWF-(1,26487)  7.20057364E-06                    1_GWF-(1,10010)
        475         10         25 -5.86439648E-04                    1_GWF-(1,26623)  8.46251144E-06                    1_GWF-(1,10011)
        476         10         26 -4.20695728E-04                    1_GWF-(1,26586)  1.47051241E-05                     1_GWF-(1,9291)
        477         10         27  3.29782133E-04                    1_GWF-(1,26586) -1.55510470E-05                     1_GWF-(1,9291)
        478         10         28  4.50443137E-04                    1_GWF-(1,26543)  1.53245879E-05                     1_GWF-(1,9291)
        479         10         29  4.53208560E-04                    1_GWF-(1,26420) -1.06300214E-05                     1_GWF-(1,9291)
        480         10         30  5.07820452E-04                    1_GWF-(1,26543)  8.88887389E-06                    1_GWF-(1,10010)
        481         10         31  4.81402118E-04                    1_GWF-(1,26588)  8.86022238E-06                    1_GWF-(1,10010)
        482         10         32  3.10413752E-04                    1_GWF-(1,26649) -1.47280225E-05                     1_GWF-(1,9291)
        483         10         33  2.66203101E-04                    1_GWF-(1,26588)  1.17370506E-05                     1_GWF-(1,9291)
        484         10         34  2.62333830E-04                    1_GWF-(1,26350) -1.22358197E-05                     1_GWF-(1,9291)
        485         10         35 -2.59815287E-04                    1_GWF-(1,26350)  9.82772750E-06                     1_GWF-(1,9291)
        486         10         36 -4.13848073E-04                    1_GWF-(1,26422)  4.39711929E-06                     1_GWF-(1,9988)
        487         10         37 -4.48818448E-04                    1_GWF-(1,26350) -3.80458381E-06                     1_GWF-(1,9291)
        488         10         38 -4.58437760E-04                    1_GWF-(1,26422)  1.00402912E-05                     1_GWF-(1,9291)
        489         10         39 -3.40108430E-04                    1_GWF-(1,26350) -1.08591503E-05                     1_GWF-(1,9291)
        490         10         40 -2.68205679E-04                    1_GWF-(1,26486)  1.52471824E-05                     1_GWF-(1,9291)
        491         10         41 -1.72294141E-04                    1_GWF-(1,26350) -1.68358897E-05                     1_GWF-(1,9291)
        492         10         42 -1.57814597E-04                    1_GWF-(1,26422)  1.91259978E-05                     1_GWF-(1,9291)
        493         10         43  1.55165125E-04                    1_GWF-(1,22908) -1.73616640E-05                     1_GWF-(1,9291)
        494         10         44  1.90102630E-04                    1_GWF-(1,26350)  2.11747503E-05                     1_GWF-(1,9291)
        495         10         45  1.67979602E-04                    1_GWF-(1,26422) -1.68705087E-05                     1_GWF-(1,9291)
        496         10         46 -1.51201408E-04                    1_GWF-(1,26673)  2.10192943E-05                     1_GWF-(1,9291)
        497         10         47 -2.21803997E-04                    1_GWF-(1,26672) -1.64592532E-05                     1_GWF-(1,9291)
        498         10         48  2.94666398E-04                    1_GWF-(1,26672)  1.77436064E-05                     1_GWF-(1,9291)
        499         10         49 -2.37509615E-04                    1_GWF-(1,26672)  1.19998202E-05                     1_GWF-(1,9292)
        500         10         50 -2.71875609E-04                    1_GWF-(1,26673)  1.41783683E-05                     1_GWF-(1,9291)
        501         11          1  2.74209554E-04                    1_GWF-(1,26673)  9.32789884E-06                     1_GWF-(1,9292)
        502         11          2  2.37634221E-04                    1_GWF-(1,26672)  1.05278089E-05                     1_GWF-(1,9291)
        503         11          3 -2.85087153E-04                    1_GWF-(1,26672)  7.72210037E-06                    1_GWF-(1,15107)
        504         11          4  1.93607538E-04                    1_GWF-(1,26672)  6.96457923E-06                     1_GWF-(1,9291)
        505         11          5  1.88303350E-04                    1_GWF-(1,26588)  5.46745504E-06                    1_GWF-(1,10845)
        506         11          6 -2.36970578E-04                    1_GWF-(1,26588)  5.95688832E-06                    1_GWF-(1,10843)
        507         11          7 -2.40962705E-04                    1_GWF-(1,26543)  5.02724283E-06                    1_GWF-(1,10843)
        508         11          8 -2.31971792E-04                    1_GWF-(1,26623)  4.30578513E-06                    1_GWF-(1,10842)
        509         11          9  1.61951319E-04                    1_GWF-(1,26674)  5.29141095E-06                    1_GWF-(1,15109)
        510         11         10  1.66251583E-04                    1_GWF-(1,26586)  4.12987720E-06                    1_GWF-(1,15108)
        511         11         11  1.66806100E-04                    1_GWF-(1,26623)  2.81845555E-06                    1_GWF-(1,10843)
        512         11         12  2.13315275E-04                    1_GWF-(1,26486)  4.12340262E-06                     1_GWF-(1,9291)
        513         11         13  2.21381253E-04                    1_GWF-(1,26350) -4.82185963E-06                     1_GWF-(1,9291)
        514         11         14  2.60988332E-04                    1_GWF-(1,26422) -5.38463784E-06                     1_GWF-(1,9292)
        515         11         15  2.57566166E-04                    1_GWF-(1,26350) -6.53520969E-06                     1_GWF-(1,9291)
        516         11         16  2.65032540E-04                    1_GWF-(1,26486)  3.63149014E-06                     1_GWF-(1,9291)
        517         11         17  2.38376185E-04                    1_GWF-(1,26622)  2.67369390E-06                     1_GWF-(1,9051)
        518         11         18 -2.49541872E-04                    1_GWF-(1,26622) -5.89868569E-06                     1_GWF-(1,9291)
        519         11         19 -2.63299479E-04                    1_GWF-(1,26350) -6.19891280E-06                     1_GWF-(1,9292)
        520         11         20 -3.28385331E-04                    1_GWF-(1,26422) -7.28558264E-06                     1_GWF-(1,9291)
        521         11         21 -4.12577574E-04                    1_GWF-(1,26420)  5.95422069E-06                    1_GWF-(1,10010)
        522         11         22 -4.47716739E-04                    1_GWF-(1,26422) -5.09527463E-06                    1_GWF-(1,15107)
        523         11         23 -3.75058553E-04                    1_GWF-(1,26420) -6.51992638E-06                     1_GWF-(1,9291)
        524         11         24 -3.61131942E-04                    1_GWF-(1,26543)  8.75195251E-06                     1_GWF-(1,9291)
        525         11         25 -3.71632995E-04                    1_GWF-(1,26588) -6.57772112E-06                     1_GWF-(1,9291)
        526         11         26  4.31947591E-04                    1_GWF-(1,26588)  4.71201166E-06                    1_GWF-(1,10010)
        527         11         27  3.17286584E-04                    1_GWF-(1,26589)  4.32184422E-06                    1_GWF-(1,10010)
        528         11         28  3.30385837E-04                    1_GWF-(1,26486) -6.68980536E-06                     1_GWF-(1,9291)
[...]
        665         14         15  2.22802315E-05                    1_GWF-(1,26420)  6.18179801E-07                    1_GWF-(1,15022)
        666         14         16  1.65512401E-05                    1_GWF-(1,26487)  9.69692433E-07                    1_GWF-(1,15107)
        667         14         17 -1.07904916E-05                    1_GWF-(1,14312)  8.47093692E-07                    1_GWF-(1,14938)
        668         14         18  1.38828143E-05                    1_GWF-(1,26543)  1.25889784E-06                    1_GWF-(1,15107)
        669         14         19 -1.35325547E-05                    1_GWF-(1,26665)  7.22100081E-07                    1_GWF-(1,14938)
        670         14         20 -2.30434337E-05                    1_GWF-(1,26588)  6.99895945E-07                    1_GWF-(1,15107)
        671         14         21 -2.26349222E-05                    1_GWF-(1,26589)  4.26685860E-07                    1_GWF-(1,15107)
        672         14         22 -2.05969787E-05                    1_GWF-(1,26588)  6.10098195E-07                    1_GWF-(1,14938)
        673         14         23 -1.58492876E-05                    1_GWF-(1,26649)  1.12666965E-06                    1_GWF-(1,15107)
        674         14         24 -1.72775306E-05                    1_GWF-(1,26588) -1.00572504E-06                    1_GWF-(1,15107)
        675         14         25 -1.86709231E-05                    1_GWF-(1,26586)  1.12106128E-06                    1_GWF-(1,15107)
        676         14         26 -1.74846881E-05                    1_GWF-(1,26422) -5.88053446E-07                    1_GWF-(1,15107)
        677         14         27  1.65514084E-05                    1_GWF-(1,26588)  3.41830862E-07                    1_GWF-(1,15107)
        678         14         28  1.97551826E-05                    1_GWF-(1,26350) -1.97668772E-07                    1_GWF-(1,15022)
        679         14         29  1.96487225E-05                    1_GWF-(1,26422) -5.92744026E-07                    1_GWF-(1,15107)
        680         14         30  1.15685488E-05                    1_GWF-(1,26487)  5.78281128E-07                    1_GWF-(1,15107)
        681         14         31  1.35783405E-05                    1_GWF-(1,26665) -5.64569777E-07                    1_GWF-(1,15107)
        682         14         32  1.09707446E-05                    1_GWF-(1,26543)  4.75990132E-07                    1_GWF-(1,15107)
        683         14         33  1.25756629E-05                    1_GWF-(1,26350)  1.34089284E-07                    1_GWF-(1,10842)
        684         14         34  1.27585185E-05                    1_GWF-(1,26422) -2.99144928E-07                    1_GWF-(1,15107)
        685         14         35 -1.19387906E-05                    1_GWF-(1,26422)  4.85308256E-07                    1_GWF-(1,15107)
        686         14         36 -1.12468893E-05                    1_GWF-(1,26350) -5.88342344E-07                    1_GWF-(1,15107)
        687         14         37 -1.05454819E-05                    1_GWF-(1,26422)  7.38027401E-07                    1_GWF-(1,15107)
        688         14         38 -1.09847724E-05                    1_GWF-(1,26544) -6.17326302E-07                    1_GWF-(1,15107)
        689         14         39 -1.55147937E-05                    1_GWF-(1,26486)  2.27341029E-07                    1_GWF-(1,15107)
        690         14         40 -1.43390301E-05                    1_GWF-(1,26487)  3.34265997E-07                    1_GWF-(1,15107)
        691         14         41 -1.08026390E-05                    1_GWF-(1,26420)  3.75611752E-07                    1_GWF-(1,14938)
        692         14         42 -7.21947905E-06                    1_GWF-(1,26588)  6.16842837E-07                    1_GWF-(1,15107)
        693         14         43 -6.16474267E-06                    1_GWF-(1,26648) -4.64178182E-07                    1_GWF-(1,15107)
        694         14         44 -8.23531515E-06                    1_GWF-(1,26649)  4.83194856E-07                    1_GWF-(1,15107)
        695         14         45 -7.59752778E-06                    1_GWF-(1,26648)  2.45253826E-07                    1_GWF-(1,10843)
        696         14         46 -8.76482371E-06                    1_GWF-(1,26649)  2.09502316E-07                    1_GWF-(1,10843)
        697         14         47  1.18893529E-05                    1_GWF-(1,26649)  4.70879356E-07                    1_GWF-(1,15107)
        698         14         48  1.19389948E-05                    1_GWF-(1,26622)  3.08610365E-07                    1_GWF-(1,14938)
        699         14         49  9.78959504E-06                    1_GWF-(1,26623)  2.23229573E-07                    1_GWF-(1,15107)
        700         14         50 -7.55476384E-06                    1_GWF-(1,26672)  2.12162782E-07                    1_GWF-(1,10843)
        701         15          1  1.06458428E-05                    1_GWF-(1,26672)  2.16772039E-07                    1_GWF-(1,14938)
        702         15          2 -1.03922008E-05                    1_GWF-(1,26672)  2.60918739E-07                    1_GWF-(1,15107)
        703         15          3 -9.64266263E-06                    1_GWF-(1,26622)  2.57796822E-07                    1_GWF-(1,15109)
        704         15          4 -1.11201793E-05                    1_GWF-(1,26649)  2.23905725E-07                    1_GWF-(1,15109)
        705         15          5 -9.52014847E-06                    1_GWF-(1,26622)  2.09693966E-07                    1_GWF-(1,10843)
        706         15          6  6.62441927E-06                    1_GWF-(1,26648)  2.11043923E-07                    1_GWF-(1,10845)
        707         15          7  6.25693810E-06                    1_GWF-(1,26649)  1.74979510E-07                    1_GWF-(1,10843)
        708         15          8 -6.15719163E-06                    1_GWF-(1,26588)  1.63023490E-07                    1_GWF-(1,15115)
        709         15          9 -5.66223185E-06                    1_GWF-(1,26420)  1.46716875E-07                    1_GWF-(1,15108)
        710         15         10  8.46651229E-06                    1_GWF-(1,26420)  1.57915545E-07                    1_GWF-(1,15107)
        711         15         11  1.10356865E-05                    1_GWF-(1,26487)  9.10797055E-08                    1_GWF-(1,10843)
        712         15         12  1.21634235E-05                    1_GWF-(1,26486)  1.21601790E-07                    1_GWF-(1,26625)
        713         15         13  9.88373919E-06                    1_GWF-(1,26544)  1.27861670E-07                    1_GWF-(1,15109)
        714         15         14  8.92729869E-06                    1_GWF-(1,26486)  1.35891434E-07                     1_GWF-(1,9988)
        715         15         15  7.82781396E-06                    1_GWF-(1,26350)  1.40371039E-07                    1_GWF-(1,26625)
        716         15         16  9.55508997E-06                    1_GWF-(1,26422) -1.08938395E-07                    1_GWF-(1,26625)
        717         15         17  9.02805827E-06                    1_GWF-(1,26350)  8.92578742E-08                    1_GWF-(1,15107)
        718         15         18 -1.01014675E-05                    1_GWF-(1,26350)  1.34371514E-07                    1_GWF-(1,10010)
        719         15         19 -8.90472331E-06                    1_GWF-(1,26543)  2.07076352E-07                    1_GWF-(1,10010)
        720         15         20 -9.08941300E-06                    1_GWF-(1,26542)  2.26340520E-07                    1_GWF-(1,10011)
        721         15         21 -9.57078287E-06                    1_GWF-(1,26543) -2.00669791E-07                    1_GWF-(1,15107)
        722         15         22 -1.12348862E-05                    1_GWF-(1,26422) -1.58494089E-07                    1_GWF-(1,15022)
        723         15         23 -1.35304959E-05                    1_GWF-(1,26350)  1.34687191E-07                     1_GWF-(1,9988)
        724         15         24 -1.41575597E-05                    1_GWF-(1,26588)  1.65015221E-07                    1_GWF-(1,10011)
        725         15         25  9.27734568E-06                    1_GWF-(1,26588)  1.74993057E-07                     1_GWF-(1,9989)
        726         15         26  1.17668787E-05                    1_GWF-(1,26586)  1.58209396E-07                    1_GWF-(1,10011)
        727         15         27  9.96958631E-06                    1_GWF-(1,26588)  1.76216630E-07                    1_GWF-(1,10010)
        728         15         28 -1.09282027E-05                    1_GWF-(1,26666)  2.12746877E-07                    1_GWF-(1,10010)
        729         15         29 -1.06476611E-05                    1_GWF-(1,26665)  1.98223531E-07                    1_GWF-(1,10011)
        730         15         30  9.63820349E-06                    1_GWF-(1,26665)  2.39243913E-07                    1_GWF-(1,15107)
        731         15         31  7.23239207E-06                    1_GWF-(1,26666)  2.02229168E-07                    1_GWF-(1,14938)
        732         15         32  5.58051443E-06                    1_GWF-(1,26648)  3.44842984E-07                    1_GWF-(1,15107)
        733         15         33  9.24085639E-06                    1_GWF-(1,26649)  2.12194839E-07                    1_GWF-(1,14938)
        734         15         34  9.54374312E-06                    1_GWF-(1,26622)  2.05495739E-07                    1_GWF-(1,15110)
        735         15         35  1.02640705E-05                    1_GWF-(1,26649)  1.52273738E-07                     1_GWF-(1,9051)
        736         15         36 -1.07499669E-05                    1_GWF-(1,26623)  1.67256869E-07                    1_GWF-(1,15022)
        737         15         37 -9.30272175E-06                    1_GWF-(1,26622)  2.61614817E-07                    1_GWF-(1,15107)
        738         15         38 -7.54401466E-06                    1_GWF-(1,26588)  1.80514290E-07                     1_GWF-(1,9051)
        739         15         39 -7.71804311E-06                    1_GWF-(1,26586)  1.79763306E-07                     1_GWF-(1,9292)
        740         15         40  6.75354799E-06                    1_GWF-(1,26217)  2.50322423E-07                     1_GWF-(1,9291)
        741         15         41  9.63552809E-06                    1_GWF-(1,26218)  2.60588827E-07                    1_GWF-(1,15107)
        742         15         42 -7.95514215E-06                    1_GWF-(1,26487)  2.49303847E-07                     1_GWF-(1,9291)
        743         15         43 -9.23890515E-06                    1_GWF-(1,26486)  1.72756426E-07                     1_GWF-(1,8949)
        744         15         44  1.20706860E-05                    1_GWF-(1,26486)  1.99012892E-07                     1_GWF-(1,9292)
        745         15         45  9.89080011E-06                    1_GWF-(1,26487)  2.73127789E-07                     1_GWF-(1,9291)
        746         15         46 -7.63189616E-06                    1_GWF-(1,26217)  1.79820044E-07                     1_GWF-(1,9292)
        747         15         47  6.72535726E-06                    1_GWF-(1,26422)  1.99257604E-07                     1_GWF-(1,9291)
        748         15         48  1.12109744E-05                    1_GWF-(1,26218)  1.52188048E-07                     1_GWF-(1,9292)
        749         15         49  1.09760290E-05                    1_GWF-(1,26217)  1.74519657E-07                     1_GWF-(1,9291)
        750         15         50  7.97716252E-06                    1_GWF-(1,26218) -2.68216426E-07                    1_GWF-(1,15107)
        751         16          1 -7.02991700E-06                    1_GWF-(1,26218) -1.95266010E-07                    1_GWF-(1,14938)
        752         16          2 -9.32084312E-06                    1_GWF-(1,26217)  1.55278757E-07                     1_GWF-(1,9291)
        753         16          3 -9.02262278E-06                    1_GWF-(1,26218)  1.22279263E-07                     1_GWF-(1,8949)
        754         16          4 -6.08602809E-06                    1_GWF-(1,26422) -1.33087177E-07                    1_GWF-(1,15107)
        755         16          5 -5.20484431E-06                    1_GWF-(1,26218)  1.05839493E-07                     1_GWF-(1,9291)
        756         16          6 -8.17172739E-06                    1_GWF-(1,26487)  1.11849781E-07                     1_GWF-(1,9291)
        757         16          7 -8.98372919E-06                    1_GWF-(1,26486)  1.19731278E-07                     1_GWF-(1,9291)
        758         16          8 -6.96618553E-06                    1_GWF-(1,26487)  1.04880941E-07                     1_GWF-(1,8949)
        759         16          9  4.88637322E-06                    1_GWF-(1,26487)  7.54307435E-08                    1_GWF-(1,15107)
        760         16         10 -4.75944424E-06                    1_GWF-(1,26218) -5.43046820E-08                    1_GWF-(1,10844)
        761         16         11  3.83914216E-06                    1_GWF-(1,26665) -6.85699636E-08                    1_GWF-(1,10846)
        762         16         12 -5.32012382E-06                    1_GWF-(1,26665)  7.87981445E-08                     1_GWF-(1,9051)
        763         16         13  6.08827330E-06                    1_GWF-(1,26588)  8.54887386E-08                     1_GWF-(1,9051)
        764         16         14  4.95969843E-06                    1_GWF-(1,26543)  8.51469289E-08                    1_GWF-(1,15107)
        765         16         15  3.74143700E-06                    1_GWF-(1,26649)  6.99426841E-08                     1_GWF-(1,9051)
        766         16         16  4.87393207E-06                    1_GWF-(1,26622)  7.31561894E-08                    1_GWF-(1,15110)
        767         16         17 -6.30247967E-06                    1_GWF-(1,26622)  6.25904406E-08                    1_GWF-(1,15109)
        768         16         18 -4.66995348E-06                    1_GWF-(1,26649)  8.00648045E-08                    1_GWF-(1,15109)
        769         16         19  4.32500147E-06                    1_GWF-(1,26623)  1.27335665E-07                    1_GWF-(1,15107)
        770         16         20  2.74483880E-06                    1_GWF-(1,26622)  7.23040673E-08                    1_GWF-(1,14938)
        771         16         21 -2.39801706E-06                    1_GWF-(1,26586)  9.55917629E-08                    1_GWF-(1,15107)
        772         16         22 -2.63122489E-06                    1_GWF-(1,26665)  8.10956030E-08                    1_GWF-(1,10010)
        773         16         23  3.52451265E-06                    1_GWF-(1,26665)  7.12433271E-08                    1_GWF-(1,15107)
        774         16         24 -4.51438829E-06                    1_GWF-(1,26543)  5.29895105E-08                     1_GWF-(1,9839)
        775         16         25 -4.82640518E-06                    1_GWF-(1,26588)  5.63541177E-08                    1_GWF-(1,15115)
        776         16         26 -3.07213192E-06                    1_GWF-(1,26586)  1.05265106E-07                    1_GWF-(1,15107)
        777         16         27  2.49011333E-06                    1_GWF-(1,26586) -5.04008565E-08                    1_GWF-(1,15107)
        778         16         28  2.88750615E-06                    1_GWF-(1,26623) -5.65992838E-08                    1_GWF-(1,15022)
        779         16         29  2.62664317E-06                    1_GWF-(1,26586) -6.06150444E-08                    1_GWF-(1,15107)
        780         16         30  2.51135348E-06                    1_GWF-(1,26486)  5.71912034E-08                    1_GWF-(1,10011)
        781         16         31  3.03524851E-06                    1_GWF-(1,26544)  5.81189155E-08                    1_GWF-(1,10010)
        782         16         32  3.18773069E-06                    1_GWF-(1,26422)  3.64079992E-08                    1_GWF-(1,10010)
        783         16         33  3.22963635E-06                    1_GWF-(1,26350)  3.67496487E-08                    1_GWF-(1,15107)
        784         16         34  2.25458295E-06                    1_GWF-(1,26422) -3.31743262E-08                    1_GWF-(1,15107)
        785         16         35 -2.76934605E-06                    1_GWF-(1,26649)  3.43685643E-08                    1_GWF-(1,10011)
        786         16         36 -2.63635453E-06                    1_GWF-(1,26622)  3.29633927E-08                    1_GWF-(1,10010)
        787         16         37 -2.00446717E-06                    1_GWF-(1,26649)  3.04866055E-08                     1_GWF-(1,9988)
        788         16         38 -2.14879795E-06                    1_GWF-(1,26422)  3.61398978E-08                    1_GWF-(1,15110)
        789         16         39 -1.92577921E-06                    1_GWF-(1,26544)  3.86540427E-08                    1_GWF-(1,14944)
        790         16         40 -2.09953221E-06                    1_GWF-(1,26486)  5.89651426E-08                    1_GWF-(1,15107)
        791         16         41 -1.60727830E-06                    1_GWF-(1,26487)  3.23742488E-08                    1_GWF-(1,15022)
        792         16         42  1.86112757E-06                    1_GWF-(1,26487)  3.01691497E-08                    1_GWF-(1,10842)
        793         16         43  2.01504827E-06                    1_GWF-(1,26420)  3.48310525E-08                    1_GWF-(1,10843)
        794         16         44  1.75290655E-06                    1_GWF-(1,26487)  4.03908077E-08                    1_GWF-(1,10843)
        795         16         45  1.31354090E-06                    1_GWF-(1,26350)  4.83712188E-08                    1_GWF-(1,15107)
        796         16         46 -1.52579408E-06                    1_GWF-(1,26623)  4.42783617E-08                    1_GWF-(1,14938)
        797         16         47  1.15332143E-06                    1_GWF-(1,26623)  6.11519234E-08                    1_GWF-(1,15109)
        798         16         48  1.66279881E-06                    1_GWF-(1,26665)  4.54650446E-08                    1_GWF-(1,15108)
        799         16         49 -2.02954361E-06                    1_GWF-(1,26665)  3.85851925E-08                    1_GWF-(1,10845)
        800         16         50  2.26530655E-06                    1_GWF-(1,26665)  4.24525862E-08                    1_GWF-(1,10843)
        801         17          1 -2.64419341E-06                    1_GWF-(1,26665)  3.67928964E-08                    1_GWF-(1,14938)
        802         17          2  2.73053223E-06                    1_GWF-(1,26665)  4.46418534E-08                    1_GWF-(1,15107)
        803         17          3 -1.69408875E-06                    1_GWF-(1,26665)  5.29091723E-08                    1_GWF-(1,15107)
        804         17          4 -9.57920255E-07                    1_GWF-(1,26623)  4.12357899E-08                    1_GWF-(1,15109)
        805         18          1  9.48597958E-07                    1_GWF-(1,26623)  4.80257308E-08                    1_GWF-(1,15107)
 --------------------------------------------------------------------------------------------------------------------------------------



 MEMORY MANAGER TOTAL STORAGE BY DATA TYPE, IN MEGABYTES
 -------------------------------
                    ALLOCATED   
 DATA TYPE           MEMORY     
 -------------------------------
 Character        4.66090000E-02
 Logical          4.40000000E-05
 Integer          5.2037920     
 Real             11.901376     
 -------------------------------
 Total            17.151821     
 -------------------------------



 Run end date and time (yyyy/mm/dd hh:mm:ss): 2022/04/08 17:46:47
 Elapsed run time:  1.055 Seconds
 Normal termination of simulation.
