                                   MODFLOW 6
                U.S. GEOLOGICAL SURVEY MODULAR HYDROLOGIC MODEL
                            VERSION 6.2.2 07/30/2021

  MODFLOW 6 compiled Mar  4 2022 18:19:04 with GFORTRAN compiler (ver. 6.3.0)

This software has been approved for release by the U.S. Geological 
Survey (USGS). Although the software has been subjected to rigorous 
review, the USGS reserves the right to update the software as needed 
pursuant to further analysis and review. No warranty, expressed or 
implied, is made by the USGS or the U.S. Government as to the 
functionality of the software and related material nor shall the 
fact of release constitute any such warranty. Furthermore, the 
software is released on condition that neither the USGS nor the U.S. 
Government shall be held liable for any damages resulting from its 
authorized or unauthorized use. Also refer to the USGS Water 
Resources Software User Rights Notice for complete use, copyright, 
and distribution information.


System command used to initiate simulation:
mf6

MODFLOW was compiled using uniform precision.

Real Variables
  KIND: 8
  TINY (smallest non-zero value):    2.225074-308
  HUGE (largest value):    1.797693+308
  PRECISION: 15
  BIT SIZE: 64

Integer Variables
  KIND: 4
  HUGE (largest value): 2147483647
  BIT SIZE: 32

Long Integer Variables
  KIND: 8
  HUGE (largest value): 9223372036854775807
  BIT SIZE: 64

Logical Variables
  KIND: 4
  BIT SIZE: 32


 OPENED mfsim.nam
 FILE TYPE:NAM   UNIT 1001   STATUS:OLD                 
 FORMAT:FORMATTED              ACCESS:SEQUENTIAL          
 ACTION:READ                

 # File generated by Flopy version 3.3.5 on 04/08/2022 at 15:14:52.

 READING SIMULATION OPTIONS
 END OF SIMULATION OPTIONS

 READING SIMULATION TIMING

 OPENED mfsim.tdis
 FILE TYPE:TDIS   UNIT 1002   STATUS:OLD                 
 FORMAT:FORMATTED              ACCESS:SEQUENTIAL          
 ACTION:READ                


 TDIS -- TEMPORAL DISCRETIZATION PACKAGE,
 VERSION 1 : 11/13/2014 - INPUT READ FROM UNIT 1002
 # File generated by Flopy version 3.3.5 on 04/08/2022 at 15:14:52.
 PROCESSING TDIS OPTIONS
    SIMULATION TIME UNIT IS SECONDS
 END OF TDIS OPTIONS
 PROCESSING TDIS DIMENSIONS
    1 STRESS PERIOD(S) IN SIMULATION
 END OF TDIS DIMENSIONS
 PROCESSING TDIS PERIODDATA


 STRESS PERIOD     LENGTH       TIME STEPS     MULTIPLIER FOR DELT
 ----------------------------------------------------------------------------
        1         1.000000          1                    1.000
 END OF TDIS PERIODDATA
 END OF SIMULATION TIMING

 READING SIMULATION MODELS
    GWF6 model ML will be created as model 1
 END OF SIMULATION MODELS

 READING SIMULATION EXCHANGES
 END OF SIMULATION EXCHANGES

 READING SOLUTIONGROUP

 Creating solution: SLN_1           

 OPENED mfsim.ims
 FILE TYPE:IMS   UNIT 1015   STATUS:OLD                 
 FORMAT:FORMATTED              ACCESS:SEQUENTIAL          
 ACTION:READ                

 END OF SIMULATION SOLUTIONGROUP

 IMS -- ITERATIVE MODEL SOLUTION PACKAGE, VERSION 6, 4/28/2017
         INPUT READ FROM UNIT 1015
 # File generated by Flopy version 3.3.5 on 04/08/2022 at 15:14:52.

 PROCESSING IMS OPTIONS
 END OF IMS OPTIONS

 PROCESSING IMS NONLINEAR
 END OF IMS NONLINEAR DATA
 ***UNDER-RELAXATION WILL NOT BE USED***

 ***IMS LINEAR SOLVER WILL BE USED***

 IMSLINEAR -- UNSTRUCTURED LINEAR SOLUTION PACKAGE, VERSION 8, 04/28/2017

 PROCESSING LINEAR DATA
 END OF LINEAR DATA

 OUTER ITERATION CONVERGENCE CRITERION    (DVCLOSE) =    0.100000E-04
 MAXIMUM NUMBER OF OUTER ITERATIONS        (MXITER) = 100
 SOLVER PRINTOUT INDEX                     (IPRIMS) = 2
 NONLINEAR ITERATION METHOD            (NONLINMETH) = 0
 LINEAR SOLUTION METHOD                   (LINMETH) = 1

       SOLUTION BY THE        CONJUGATE-GRADIENT       METHOD
 ------------------------------------------------------------------
 MAXIMUM OF 100 CALLS OF SOLUTION ROUTINE
 MAXIMUM OF 50 INTERNAL ITERATIONS PER CALL TO SOLUTION ROUTINE
 LINEAR ACCELERATION METHOD            = CG        
 MATRIX PRECONDITIONING TYPE           = INCOMPLETE LU       
 MATRIX SCALING APPROACH               = NO SCALING          
 MATRIX REORDERING APPROACH            = ORIGINAL ORDERING        
 NUMBER OF ORTHOGONALIZATIONS          = 0
 HEAD CHANGE CRITERION FOR CLOSURE     =    0.10000E-05
 RESIDUAL CHANGE CRITERION FOR CLOSURE =    0.10000E-04
 RESIDUAL CONVERGENCE OPTION           = 1
 RESIDUAL CONVERGENCE NORM             = INFINITY NORM S 
 RELAXATION FACTOR                     =    0.00000E+00




    Solving:  Stress period:     1    Time step:     1

1
                            STRESS PERIOD NO. 1, LENGTH =   1.000000    
                            -----------------------------------------------
                            NUMBER OF TIME STEPS = 1
                            MULTIPLIER FOR DELT =     1.000
                            INITIAL TIME STEP SIZE =   1.000000    

 SLN_1 OUTER ITERATION SUMMARY
 ----------------------------------------------------------------------------------------------------------
                                OUTER      INNER                    STEP   MAXIMUM CHANGE MODEL-(CELLID) OR
 OUTER ITERATION STEP       ITERATION  ITERATION  MAXIMUM CHANGE SUCCESS             MODEL-PACKAGE-(NUMBER)
 ----------------------------------------------------------------------------------------------------------
 Model                              1         50       51.955784                            1_GWF-(1,26517)
 Model                              2         50      -47.147937                            1_GWF-(1,26517)
 Model                              3         50       1.9041283                            1_GWF-(1,24000)
 Model                              4         50       1.0594460                            1_GWF-(1,25371)
 Model                              5         50     -0.32806575                            1_GWF-(1,25300)
 Model                              6         50      0.16865660                            1_GWF-(1,25363)
 Model                              7         50 -5.29799552E-02                            1_GWF-(1,25301)
 Model                              8         50  2.78768647E-02                            1_GWF-(1,25374)
 Model                              9         50 -8.46016278E-03                            1_GWF-(1,25302)
 Model                             10         50  4.62627232E-03                            1_GWF-(1,25301)
 Model                             11         50 -1.38802917E-03                            1_GWF-(1,25302)
 Model                             12         50  7.71373933E-04                            1_GWF-(1,25304)
 Model                             13         50 -2.37494715E-04                            1_GWF-(1,25302)
 Model                             14         50  1.31340036E-04                            1_GWF-(1,25303)
 Model                             15         50 -4.07576195E-05                            1_GWF-(1,25302)
 Model                             16         34  1.48821698E-05                            1_GWF-(1,25305)
 Model                             17          7  3.38568969E-06                            1_GWF-(1,25292)
 Model                             18          1 -7.88651377E-07       *                    1_GWF-(1,26217)
 ----------------------------------------------------------------------------------------------------------


 18 CALLS TO NUMERICAL SOLUTION IN TIME STEP 1 STRESS PERIOD 1
 792 TOTAL ITERATIONS

 SLN_1 INNER ITERATION SUMMARY
 --------------------------------------------------------------------------------------------------------------------------------------
      TOTAL      OUTER      INNER                                                            MAXIMUM                                   
  ITERATION  ITERATION  ITERATION  MAXIMUM CHANGE      MAXIMUM CHANGE MODEL-(CELLID)        RESIDUAL    MAXIMUM RESIDUAL MODEL-(CELLID)
 --------------------------------------------------------------------------------------------------------------------------------------
          1          1          1      -11.770277                    1_GWF-(1,12785)  9.05981304E-02                      1_GWF-(1,612)
          2          1          2       9.9402764                    1_GWF-(1,26555)  7.49557822E-02                    1_GWF-(1,11530)
          3          1          3       13.248513                    1_GWF-(1,26512)  8.78141545E-02                    1_GWF-(1,11530)
          4          1          4       10.241472                    1_GWF-(1,26510)  8.05183818E-02                    1_GWF-(1,11188)
          5          1          5       7.6893426                    1_GWF-(1,26647)  6.72409908E-02                    1_GWF-(1,11175)
          6          1          6       8.6994859                    1_GWF-(1,26649)  3.59445045E-02                    1_GWF-(1,15109)
          7          1          7       7.1273480                    1_GWF-(1,26622)  2.69267954E-02                    1_GWF-(1,15108)
          8          1          8       5.9047505                    1_GWF-(1,26665)  2.74764547E-02                    1_GWF-(1,10843)
          9          1          9       4.3390634                    1_GWF-(1,26647)  3.16209865E-02                    1_GWF-(1,10843)
         10          1         10       4.5235508                    1_GWF-(1,26486)  3.14330832E-02                    1_GWF-(1,10843)
         11          1         11       4.3882881                    1_GWF-(1,26544)  4.37895838E-02                    1_GWF-(1,15109)
         12          1         12       2.5380265                    1_GWF-(1,26413)  4.15661182E-02                    1_GWF-(1,15109)
         13          1         13       2.9996536                    1_GWF-(1,26422)  4.08032729E-02                    1_GWF-(1,15107)
         14          1         14       2.4110494                    1_GWF-(1,26350)  3.30423022E-02                    1_GWF-(1,10843)
         15          1         15       1.7350013                    1_GWF-(1,26218)  3.05191783E-02                    1_GWF-(1,15108)
         16          1         16      -1.0643911                    1_GWF-(1,26586)  4.37767291E-02                    1_GWF-(1,15109)
         17          1         17      -1.2940696                    1_GWF-(1,26623)  4.46591401E-02                    1_GWF-(1,15108)
         18          1         18      -2.1487614                    1_GWF-(1,26543)  4.68284829E-02                    1_GWF-(1,15109)
         19          1         19      -3.0887131                    1_GWF-(1,26588)  3.52977651E-02                    1_GWF-(1,15107)
         20          1         20      -2.4724792                    1_GWF-(1,26543)  3.44415638E-02                    1_GWF-(1,15108)
         21          1         21      -2.1359712                    1_GWF-(1,26487)  4.48408522E-02                    1_GWF-(1,15109)
         22          1         22      -2.4346002                    1_GWF-(1,26486)  4.48407663E-02                    1_GWF-(1,15108)
         23          1         23      -2.5322447                    1_GWF-(1,26487)  4.93980801E-02                    1_GWF-(1,15109)
         24          1         24      -2.4833774                    1_GWF-(1,26486)  4.21961426E-02                    1_GWF-(1,15109)
         25          1         25       2.2436189                    1_GWF-(1,26420)  4.33996846E-02                    1_GWF-(1,15108)
         26          1         26       2.1942388                    1_GWF-(1,26487)  5.16314348E-02                    1_GWF-(1,15109)
         27          1         27       1.8980235                    1_GWF-(1,26420)  3.87763923E-02                    1_GWF-(1,15108)
         28          1         28       1.4741176                    1_GWF-(1,26422)  3.61823873E-02                    1_GWF-(1,15109)
         29          1         29       1.1483856                    1_GWF-(1,26350)  3.16646952E-02                    1_GWF-(1,15107)
         30          1         30      -1.3321721                    1_GWF-(1,25468) -4.02265626E-02                    1_GWF-(1,11189)
         31          1         31      -1.7364153                    1_GWF-(1,25454)  3.87500721E-02                    1_GWF-(1,15109)
         32          1         32      -2.0475831                    1_GWF-(1,25450)  2.36674877E-02                    1_GWF-(1,15108)
         33          1         33      -1.9602916                    1_GWF-(1,26422)  2.17849755E-02                     1_GWF-(1,9051)
         34          1         34      -1.5467468                    1_GWF-(1,25279)  2.28096374E-02                     1_GWF-(1,9051)
         35          1         35      -1.4877833                    1_GWF-(1,26486)  2.25646856E-02                     1_GWF-(1,9051)
         36          1         36      -1.2696384                    1_GWF-(1,25209)  2.20412722E-02                    1_GWF-(1,15107)
         37          1         37      -1.3997114                    1_GWF-(1,25229) -2.40108983E-02                    1_GWF-(1,11531)
         38          1         38      -1.4404490                    1_GWF-(1,24835) -2.74262622E-02                    1_GWF-(1,11530)
         39          1         39      -1.5116375                    1_GWF-(1,24842)  3.78328010E-02                    1_GWF-(1,11530)
         40          1         40      -1.3341662                    1_GWF-(1,24882)  3.77002978E-02                    1_GWF-(1,11189)
         41          1         41      -1.2309142                    1_GWF-(1,21703) -2.57549273E-02                    1_GWF-(1,11189)
         42          1         42      -1.1717945                    1_GWF-(1,21741) -2.10270420E-02                    1_GWF-(1,11190)
         43          1         43     -0.98566590                    1_GWF-(1,24882)  2.01381268E-02                    1_GWF-(1,14938)
         44          1         44       1.1552019                    1_GWF-(1,26217)  3.18185652E-02                    1_GWF-(1,15107)
         45          1         45       1.3029287                    1_GWF-(1,26218)  2.04767205E-02                    1_GWF-(1,14938)
         46          1         46       1.2658942                    1_GWF-(1,22433) -2.28300146E-02                    1_GWF-(1,11174)
         47          1         47       1.4394061                    1_GWF-(1,22424)  1.79147905E-02                     1_GWF-(1,9988)
         48          1         48       1.5830371                    1_GWF-(1,25178)  1.96716290E-02                     1_GWF-(1,9051)
         49          1         49      -1.7662720                    1_GWF-(1,26217)  1.71655289E-02                     1_GWF-(1,9052)
         50          1         50      -1.7710599                    1_GWF-(1,26218)  1.59662716E-02                     1_GWF-(1,9291)
         51          2          1      -48.184979                    1_GWF-(1,26519)     -0.26253142                    1_GWF-(1,26458)
         52          2          2      -19.971397                    1_GWF-(1,26513)  5.92201265E-02                    1_GWF-(1,26458)
         53          2          3      -9.6543493                    1_GWF-(1,26637)  4.73709673E-02                    1_GWF-(1,26516)
         54          2          4      -10.000168                    1_GWF-(1,26665) -1.95175897E-02                    1_GWF-(1,26610)
         55          2          5      -6.8226853                    1_GWF-(1,26622)  2.71422210E-02                    1_GWF-(1,26458)
         56          2          6      -5.9284500                    1_GWF-(1,26589)  1.44454317E-02                     1_GWF-(1,9291)
         57          2          7      -5.3810650                    1_GWF-(1,26543)  1.44469243E-02                     1_GWF-(1,9291)
         58          2          8      -4.5948898                    1_GWF-(1,26486)  1.45887748E-02                     1_GWF-(1,9291)
         59          2          9      -3.4109754                    1_GWF-(1,26487)  1.47078363E-02                     1_GWF-(1,9291)
         60          2         10      -3.0673639                    1_GWF-(1,26350)  1.46047092E-02                     1_GWF-(1,9291)
         61          2         11      -2.5383588                    1_GWF-(1,26348)  1.43752970E-02                     1_GWF-(1,9291)
         62          2         12      -2.1987624                    1_GWF-(1,26217)  1.41231130E-02                     1_GWF-(1,9291)
         63          2         13      -1.4061228                    1_GWF-(1,26218)  1.38805723E-02                     1_GWF-(1,9291)
         64          2         14      -1.0858619                    1_GWF-(1,26649)  1.35259258E-02                     1_GWF-(1,9291)
         65          2         15      -1.2793909                    1_GWF-(1,26622)  1.27598777E-02                     1_GWF-(1,9291)
         66          2         16      -1.7143290                    1_GWF-(1,25509)  1.16388219E-02                     1_GWF-(1,9051)
         67          2         17       1.7228064                    1_GWF-(1,26218)  1.19503225E-02                     1_GWF-(1,9051)
         68          2         18       1.6681840                    1_GWF-(1,26422)  1.23388634E-02                     1_GWF-(1,9051)
         69          2         19       1.3716154                    1_GWF-(1,26218)  1.25998846E-02                     1_GWF-(1,9051)
         70          2         20      0.95964038                    1_GWF-(1,26543)  1.26536487E-02                     1_GWF-(1,9051)
         71          2         21       1.2969015                    1_GWF-(1,26588)  1.24790455E-02                     1_GWF-(1,9051)
         72          2         22       1.5413537                    1_GWF-(1,26543)  1.20876096E-02                     1_GWF-(1,9051)
         73          2         23      -1.1152139                    1_GWF-(1,26218)  1.14968463E-02                     1_GWF-(1,9051)
         74          2         24      -1.3120716                    1_GWF-(1,26487)  1.06953914E-02                     1_GWF-(1,9051)
         75          2         25      -1.6379240                    1_GWF-(1,26486)  9.84769960E-03                     1_GWF-(1,9051)
         76          2         26      -1.8175121                    1_GWF-(1,26487)  9.44466656E-03                    1_GWF-(1,10010)
         77          2         27      -1.2382070                    1_GWF-(1,26486)  1.02313084E-02                    1_GWF-(1,10010)
         78          2         28      0.59696297                    1_GWF-(1,26217)  1.06836227E-02                    1_GWF-(1,10010)
         79          2         29      0.68541766                    1_GWF-(1,26218)  1.09833009E-02                    1_GWF-(1,10010)
         80          2         30      0.73112062                    1_GWF-(1,26420)  1.11554665E-02                    1_GWF-(1,10010)
         81          2         31      0.74528021                    1_GWF-(1,25248)  1.12454098E-02                    1_GWF-(1,10010)
         82          2         32      0.64111408                    1_GWF-(1,25252)  1.10515669E-02                    1_GWF-(1,10010)
         83          2         33      0.56854927                    1_GWF-(1,25206)  1.07566263E-02                    1_GWF-(1,10010)
         84          2         34      0.50510387                    1_GWF-(1,26350)  1.04513546E-02                    1_GWF-(1,10010)
         85          2         35      0.87336357                    1_GWF-(1,26422)  1.00780603E-02                    1_GWF-(1,10010)
         86          2         36      0.66178234                    1_GWF-(1,26350)  9.61941362E-03                    1_GWF-(1,10010)
         87          2         37      0.57657406                    1_GWF-(1,26486)  9.03162396E-03                    1_GWF-(1,10010)
         88          2         38      0.62739448                    1_GWF-(1,21744)  8.32124712E-03                    1_GWF-(1,10010)
         89          2         39      0.66645133                    1_GWF-(1,21740)  9.51696979E-03                    1_GWF-(1,11189)
         90          2         40      0.61513786                    1_GWF-(1,21704)  1.16314059E-02                    1_GWF-(1,11530)
         91          2         41     -0.43548591                    1_GWF-(1,26623)  1.20232407E-02                    1_GWF-(1,11189)
         92          2         42     -0.48899175                    1_GWF-(1,26588)  1.26771274E-02                    1_GWF-(1,11530)
         93          2         43     -0.47054865                    1_GWF-(1,26350)  1.20376627E-02                    1_GWF-(1,11189)
         94          2         44     -0.56457181                    1_GWF-(1,24835)  1.01496501E-02                    1_GWF-(1,11530)
         95          2         45     -0.70085164                    1_GWF-(1,24834)  9.12794164E-03                    1_GWF-(1,11189)
         96          2         46     -0.70845133                    1_GWF-(1,22359)  8.79362337E-03                    1_GWF-(1,15109)
         97          2         47     -0.87199010                    1_GWF-(1,22349)  1.13763401E-02                    1_GWF-(1,15108)
         98          2         48     -0.84513753                    1_GWF-(1,21767)  1.36417002E-02                    1_GWF-(1,15109)
         99          2         49     -0.71646549                    1_GWF-(1,21732)  1.05840712E-02                    1_GWF-(1,15108)
        100          2         50     -0.65152574                    1_GWF-(1,21723)  1.27084458E-02                    1_GWF-(1,11189)
        101          3          1      0.48942591                    1_GWF-(1,26673)  1.26941756E-02                    1_GWF-(1,11530)
        102          3          2      0.50711503                    1_GWF-(1,26672)  1.20459244E-02                    1_GWF-(1,11189)
        103          3          3      0.57018065                    1_GWF-(1,21738)  1.14013890E-02                    1_GWF-(1,15108)
        104          3          4      0.69672967                    1_GWF-(1,21762)  9.76979792E-03                    1_GWF-(1,15109)
        105          3          5      0.61279537                    1_GWF-(1,21764)  8.86845287E-03                    1_GWF-(1,10843)
        106          3          6      0.54300419                    1_GWF-(1,24835)  8.73656657E-03                    1_GWF-(1,10843)
        107          3          7      0.42844934                    1_GWF-(1,21671) -8.82752828E-03                    1_GWF-(1,15109)
        108          3          8     -0.35975787                    1_GWF-(1,26663)  8.98570389E-03                    1_GWF-(1,11530)
        109          3          9     -0.35193640                    1_GWF-(1,26648)  9.92781211E-03                    1_GWF-(1,11189)
        110          3         10      0.34378738                    1_GWF-(1,26350)  1.08164586E-02                    1_GWF-(1,11530)
        111          3         11      0.37216173                    1_GWF-(1,26486)  1.15641279E-02                    1_GWF-(1,11189)
        112          3         12     -0.46456943                    1_GWF-(1,26422)  1.19105155E-02                    1_GWF-(1,11530)
        113          3         13      0.43904834                    1_GWF-(1,26422)  9.74154774E-03                    1_GWF-(1,11189)
        114          3         14      0.49907540                    1_GWF-(1,26350)  6.53331389E-03                    1_GWF-(1,10010)
        115          3         15     -0.56114426                    1_GWF-(1,26350)  6.77002943E-03                    1_GWF-(1,10010)
        116          3         16     -0.57700530                    1_GWF-(1,26422)  6.96385962E-03                    1_GWF-(1,10010)
        117          3         17     -0.35729132                    1_GWF-(1,26420)  7.25307375E-03                    1_GWF-(1,10010)
        118          3         18      0.32658885                    1_GWF-(1,26350)  8.54464563E-03                    1_GWF-(1,11189)
        119          3         19      0.39029984                    1_GWF-(1,26149)  8.86094451E-03                    1_GWF-(1,11530)
        120          3         20      0.37010985                    1_GWF-(1,26160)  8.52936189E-03                    1_GWF-(1,10010)
        121          3         21     -0.39011176                    1_GWF-(1,26420)  8.11527926E-03                    1_GWF-(1,10010)
        122          3         22      0.28189857                    1_GWF-(1,26649)  7.52993319E-03                    1_GWF-(1,10010)
        123          3         23      0.37419660                    1_GWF-(1,26487)  7.10693295E-03                    1_GWF-(1,10010)
        124          3         24      0.62361623                    1_GWF-(1,26486)  7.03466652E-03                    1_GWF-(1,10010)
        125          3         25      0.76256328                    1_GWF-(1,26487)  7.02109778E-03                    1_GWF-(1,10010)
        126          3         26      0.79386539                    1_GWF-(1,26420)  6.61049249E-03                    1_GWF-(1,10010)
        127          3         27      0.71825679                    1_GWF-(1,26487)  7.70642394E-03                     1_GWF-(1,9051)
        128          3         28      0.52049299                    1_GWF-(1,26486)  7.67371671E-03                     1_GWF-(1,9051)
        129          3         29     -0.78615550                    1_GWF-(1,26543)  5.92164368E-03                     1_GWF-(1,9029)
        130          3         30     -0.64637752                    1_GWF-(1,26588)  4.59741039E-03                     1_GWF-(1,9051)
        131          3         31      0.61458568                    1_GWF-(1,26588)  5.54022324E-03                     1_GWF-(1,9051)
        132          3         32     -0.53108082                    1_GWF-(1,26588)  7.54752794E-03                     1_GWF-(1,9051)
        133          3         33     -0.60091034                    1_GWF-(1,26422)  8.57886844E-03                     1_GWF-(1,9051)
        134          3         34     -0.58138287                    1_GWF-(1,26350)  7.04238506E-03                     1_GWF-(1,9029)
        135          3         35     -0.49908409                    1_GWF-(1,26622)  4.39111947E-03                     1_GWF-(1,9029)
        136          3         36      0.52420144                    1_GWF-(1,26622)  5.08515501E-03                     1_GWF-(1,9291)
        137          3         37      0.50920143                    1_GWF-(1,26649)  5.16846933E-03                     1_GWF-(1,9051)
        138          3         38      0.41686753                    1_GWF-(1,26622)  6.73303084E-03                     1_GWF-(1,9051)
        139          3         39      0.44308444                    1_GWF-(1,26217)  6.47109928E-03                     1_GWF-(1,9051)
        140          3         40     -0.50340691                    1_GWF-(1,26665)  5.17411203E-03                    1_GWF-(1,15109)
        141          3         41      0.52824000                    1_GWF-(1,26665)  6.03132448E-03                     1_GWF-(1,9291)
        142          3         42     -0.54809779                    1_GWF-(1,26665)  6.39388476E-03                     1_GWF-(1,9290)
        143          3         43     -0.49652271                    1_GWF-(1,26666)  6.39088876E-03                     1_GWF-(1,9051)
        144          3         44      0.54671327                    1_GWF-(1,26543) -6.56108993E-03                    1_GWF-(1,11189)
        145          3         45      0.65620618                    1_GWF-(1,26649) -7.45436621E-03                    1_GWF-(1,15109)
        146          3         46      0.81871443                    1_GWF-(1,26648) -1.24741318E-02                    1_GWF-(1,15108)
        147          3         47      0.59352831                    1_GWF-(1,26640) -9.20526452E-03                    1_GWF-(1,15107)
        148          3         48      0.57240700                    1_GWF-(1,26634) -6.54794493E-03                    1_GWF-(1,15115)
        149          3         49     -0.72166387                    1_GWF-(1,26623) -8.85165186E-03                    1_GWF-(1,15109)
        150          3         50     -0.76673993                    1_GWF-(1,26586) -6.07863998E-03                    1_GWF-(1,11531)
        151          4          1     -0.25872095                    1_GWF-(1,26522)  4.11007222E-03                     1_GWF-(1,9290)
        152          4          2     -0.29784500                    1_GWF-(1,26482)  4.62821655E-03                     1_GWF-(1,9989)
        153          4          3     -0.28593304                    1_GWF-(1,26544) -5.03965396E-03                    1_GWF-(1,15107)
        154          4          4     -0.32515972                    1_GWF-(1,26586) -6.97420532E-03                    1_GWF-(1,15108)
        155          4          5     -0.28662522                    1_GWF-(1,26348) -4.09635568E-03                    1_GWF-(1,15109)
        156          4          6     -0.31075996                    1_GWF-(1,26218)  2.48004511E-03                     1_GWF-(1,9989)
        157          4          7     -0.26657872                    1_GWF-(1,26217)  2.81295647E-03                     1_GWF-(1,9290)
        158          4          8     -0.17968721                    1_GWF-(1,26218)  2.84235939E-03                     1_GWF-(1,9290)
        159          4          9      0.16035053                    1_GWF-(1,26665)  2.62086870E-03                    1_GWF-(1,15107)
        160          4         10      0.20643280                    1_GWF-(1,26666)  2.32746109E-03                    1_GWF-(1,10010)
        161          4         11      0.26964337                    1_GWF-(1,26665)  2.76868337E-03                     1_GWF-(1,9051)
        162          4         12      0.15954758                    1_GWF-(1,26218)  3.01133671E-03                     1_GWF-(1,9051)
        163          4         13      0.16713604                    1_GWF-(1,26217)  2.49518758E-03                     1_GWF-(1,9051)
        164          4         14      0.18366970                    1_GWF-(1,26622)  1.97900676E-03                     1_GWF-(1,9051)
        165          4         15      0.18250875                    1_GWF-(1,26649)  2.25470326E-03                     1_GWF-(1,9029)
        166          4         16      0.18223228                    1_GWF-(1,26622)  3.27052961E-03                     1_GWF-(1,9051)
        167          4         17      0.15221547                    1_GWF-(1,26588)  4.07781256E-03                     1_GWF-(1,9051)
        168          4         18      0.13328943                    1_GWF-(1,26543)  3.77947792E-03                     1_GWF-(1,9051)
        169          4         19      0.13419528                    1_GWF-(1,26588)  2.51806094E-03                     1_GWF-(1,9051)
        170          4         20     -0.18369085                    1_GWF-(1,26588)  1.39616317E-03                     1_GWF-(1,9051)
        171          4         21     -0.19926426                    1_GWF-(1,26543)  1.41055893E-03                     1_GWF-(1,9051)
        172          4         22     -0.16223594                    1_GWF-(1,26588)  2.11163308E-03                     1_GWF-(1,9051)
        173          4         23     -0.18783293                    1_GWF-(1,26486)  2.33335122E-03                     1_GWF-(1,9051)
        174          4         24     -0.19099441                    1_GWF-(1,26487)  1.56587049E-03                     1_GWF-(1,9051)
        175          4         25     -0.17310991                    1_GWF-(1,26486)  1.01777854E-03                    1_GWF-(1,10011)
        176          4         26     -0.16663946                    1_GWF-(1,26487)  1.36571637E-03                    1_GWF-(1,10010)
        177          4         27     -0.13141603                    1_GWF-(1,26420)  1.25333673E-03                     1_GWF-(1,9989)
        178          4         28 -9.54759586E-02                    1_GWF-(1,26487)  8.80959337E-04                     1_GWF-(1,9988)
        179          4         29  8.00775112E-02                    1_GWF-(1,26623) -9.80262624E-04                    1_GWF-(1,11531)
        180          4         30  9.11149482E-02                    1_GWF-(1,26420)  1.50543578E-03                    1_GWF-(1,10011)
        181          4         31  9.47465384E-02                    1_GWF-(1,26543)  1.79138303E-03                    1_GWF-(1,10010)
        182          4         32  9.38397453E-02                    1_GWF-(1,26544)  1.60513803E-03                    1_GWF-(1,10010)
        183          4         33  8.64148261E-02                    1_GWF-(1,26421)  1.45727599E-03                    1_GWF-(1,15107)
        184          4         34  8.15836065E-02                    1_GWF-(1,26420)  1.18714103E-03                    1_GWF-(1,10011)
        185          4         35  9.38613331E-02                    1_GWF-(1,26422)  1.11309154E-03                    1_GWF-(1,10010)
        186          4         36  8.78499302E-02                    1_GWF-(1,26350)  1.13875817E-03                    1_GWF-(1,10010)
        187          4         37 -7.25567874E-02                    1_GWF-(1,26350)  1.07842143E-03                    1_GWF-(1,10010)
        188          4         38 -7.10397466E-02                    1_GWF-(1,26422)  1.16508815E-03                    1_GWF-(1,15107)
        189          4         39 -6.30067386E-02                    1_GWF-(1,26544)  1.14714812E-03                    1_GWF-(1,14938)
        190          4         40 -6.17801092E-02                    1_GWF-(1,26486)  1.63713745E-03                    1_GWF-(1,15107)
        191          4         41 -6.43920641E-02                    1_GWF-(1,26350)  8.33918898E-04                    1_GWF-(1,10010)
        192          4         42 -5.60880620E-02                    1_GWF-(1,26422)  1.00284938E-03                    1_GWF-(1,10843)
        193          4         43 -3.02998937E-02                    1_GWF-(1,26218)  9.87256480E-04                    1_GWF-(1,10843)
        194          4         44 -3.28704507E-02                    1_GWF-(1,26486)  8.91492280E-04                    1_GWF-(1,10843)
        195          4         45 -4.07104100E-02                    1_GWF-(1,26543)  7.57875461E-04                    1_GWF-(1,10843)
        196          4         46 -5.23311480E-02                    1_GWF-(1,26588)  7.85857168E-04                    1_GWF-(1,11188)
        197          4         47  5.46914561E-02                    1_GWF-(1,25271)  7.51243442E-04                    1_GWF-(1,10843)
        198          4         48  6.54355226E-02                    1_GWF-(1,26672)  9.48154923E-04                    1_GWF-(1,15109)
        199          4         49 -7.64147278E-02                    1_GWF-(1,26672)  1.14885349E-03                    1_GWF-(1,15108)
        200          4         50 -6.89733729E-02                    1_GWF-(1,26673)  1.08912323E-03                    1_GWF-(1,15109)
        201          5          1  6.40742763E-02                    1_GWF-(1,26673)  9.87083770E-04                    1_GWF-(1,15108)
        202          5          2  6.44331408E-02                    1_GWF-(1,26672)  1.46311836E-03                    1_GWF-(1,15109)
        203          5          3 -6.05678302E-02                    1_GWF-(1,26672)  1.54134740E-03                    1_GWF-(1,15108)
        204          5          4  4.70720709E-02                    1_GWF-(1,21762)  1.03308364E-03                    1_GWF-(1,15109)
        205          5          5 -3.82347388E-02                    1_GWF-(1,25421)  9.03044548E-04                    1_GWF-(1,10843)
        206          5          6  3.24238278E-02                    1_GWF-(1,21667)  9.75060266E-04                    1_GWF-(1,10843)
        207          5          7 -2.96030761E-02                    1_GWF-(1,26623)  9.65156522E-04                    1_GWF-(1,10843)
        208          5          8 -3.03710417E-02                    1_GWF-(1,26586)  9.56955597E-04                    1_GWF-(1,10843)
        209          5          9  3.29129921E-02                    1_GWF-(1,26422)  8.12692373E-04                    1_GWF-(1,15108)
        210          5         10  3.06468301E-02                    1_GWF-(1,26623)  8.78066630E-04                    1_GWF-(1,15107)
        211          5         11 -3.75136075E-02                    1_GWF-(1,25768)  6.10090313E-04                    1_GWF-(1,10844)
        212          5         12 -4.49875496E-02                    1_GWF-(1,26422)  6.69623433E-04                    1_GWF-(1,10843)
        213          5         13 -4.81029229E-02                    1_GWF-(1,26350)  6.50469292E-04                    1_GWF-(1,11531)
        214          5         14 -5.75107070E-02                    1_GWF-(1,26422)  6.66410090E-04                    1_GWF-(1,10010)
        215          5         15 -6.23861904E-02                    1_GWF-(1,26350)  6.76256870E-04                    1_GWF-(1,10011)
        216          5         16 -5.40622467E-02                    1_GWF-(1,26422)  6.86040712E-04                    1_GWF-(1,10011)
        217          5         17 -3.84969955E-02                    1_GWF-(1,26420)  7.14221903E-04                    1_GWF-(1,10011)
        218          5         18 -3.58475204E-02                    1_GWF-(1,26623)  9.66053979E-04                    1_GWF-(1,10010)
        219          5         19 -5.81684890E-02                    1_GWF-(1,26544)  1.23021103E-03                    1_GWF-(1,10010)
        220          5         20 -5.54188672E-02                    1_GWF-(1,26486)  1.12288679E-03                    1_GWF-(1,10010)
        221          5         21  5.03215986E-02                    1_GWF-(1,26543)  7.69914934E-04                    1_GWF-(1,10010)
        222          5         22  6.46501572E-02                    1_GWF-(1,26588)  6.59524724E-04                    1_GWF-(1,10010)
        223          5         23  5.72405444E-02                    1_GWF-(1,26420)  8.14760610E-04                    1_GWF-(1,10010)
        224          5         24  7.49391735E-02                    1_GWF-(1,26623)  8.79674113E-04                    1_GWF-(1,10010)
        225          5         25  7.57504905E-02                    1_GWF-(1,26586)  6.35132070E-04                    1_GWF-(1,10010)
        226          5         26  5.96399578E-02                    1_GWF-(1,26543)  7.73119957E-04                     1_GWF-(1,9051)
        227          5         27  5.73713895E-02                    1_GWF-(1,26420)  8.84380585E-04                     1_GWF-(1,9051)
        228          5         28 -6.55629723E-02                    1_GWF-(1,26588)  8.03526046E-04                     1_GWF-(1,9051)
        229          5         29 -7.99136200E-02                    1_GWF-(1,26543)  7.31236799E-04                     1_GWF-(1,9051)
        230          5         30 -6.57667821E-02                    1_GWF-(1,26648)  8.57921003E-04                     1_GWF-(1,9051)
        231          5         31 -8.80925004E-02                    1_GWF-(1,26649)  1.13231430E-03                     1_GWF-(1,9051)
        232          5         32 -5.18496792E-02                    1_GWF-(1,26622)  1.30507263E-03                     1_GWF-(1,9051)
        233          5         33 -5.58553107E-02                    1_GWF-(1,26217)  1.22991432E-03                     1_GWF-(1,9051)
        234          5         34 -5.85190727E-02                    1_GWF-(1,26218)  1.02391973E-03                     1_GWF-(1,9051)
        235          5         35 -7.59777279E-02                    1_GWF-(1,26420)  8.60322947E-04                     1_GWF-(1,9051)
        236          5         36 -8.00855667E-02                    1_GWF-(1,26487)  8.22883139E-04                     1_GWF-(1,9051)
        237          5         37 -5.87331810E-02                    1_GWF-(1,26486)  7.90287385E-04                     1_GWF-(1,9051)
        238          5         38 -3.74249352E-02                    1_GWF-(1,25240)  6.83180404E-04                     1_GWF-(1,9052)
        239          5         39 -4.89773961E-02                    1_GWF-(1,26666)  5.10818966E-04                     1_GWF-(1,9989)
        240          5         40 -6.30309726E-02                    1_GWF-(1,26665)  5.37135839E-04                    1_GWF-(1,15109)
        241          5         41 -4.57672456E-02                    1_GWF-(1,26666)  7.16007597E-04                    1_GWF-(1,15107)
        242          5         42 -4.50065917E-02                    1_GWF-(1,24912)  6.96393763E-04                     1_GWF-(1,8949)
        243          5         43 -4.15540503E-02                    1_GWF-(1,24905)  7.54176344E-04                     1_GWF-(1,8949)
        244          5         44  5.14967043E-02                    1_GWF-(1,26217)  7.08346776E-04                     1_GWF-(1,9291)
        245          5         45  4.79999482E-02                    1_GWF-(1,26218) -7.78520405E-04                    1_GWF-(1,15109)
        246          5         46  5.05069204E-02                    1_GWF-(1,26648) -1.12296546E-03                    1_GWF-(1,15108)
        247          5         47  4.53984182E-02                    1_GWF-(1,26218)  6.77999086E-04                     1_GWF-(1,8949)
        248          5         48  3.95726181E-02                    1_GWF-(1,26217)  7.30241816E-04                     1_GWF-(1,8949)
        249          5         49 -4.98504124E-02                    1_GWF-(1,26623)  7.02781368E-04                     1_GWF-(1,9291)
        250          5         50 -4.99305411E-02                    1_GWF-(1,26586)  7.68067273E-04                     1_GWF-(1,9291)
        251          6          1 -2.79211648E-02                    1_GWF-(1,26384)  7.23033292E-04                     1_GWF-(1,9291)
        252          6          2  2.91790887E-02                    1_GWF-(1,21652)  6.73337249E-04                     1_GWF-(1,9291)
        253          6          3  3.18750997E-02                    1_GWF-(1,21661)  5.77817382E-04                     1_GWF-(1,9290)
        254          6          4 -3.62973293E-02                    1_GWF-(1,26218) -7.33980049E-04                    1_GWF-(1,15108)
        255          6          5 -3.69840234E-02                    1_GWF-(1,26348) -5.50220650E-04                    1_GWF-(1,15109)
        256          6          6 -4.02090357E-02                    1_GWF-(1,26218)  5.49016982E-04                     1_GWF-(1,9291)
        257          6          7 -3.52174375E-02                    1_GWF-(1,26217)  5.59664229E-04                     1_GWF-(1,9291)
        258          6          8  2.99914659E-02                    1_GWF-(1,24910)  5.13420715E-04                     1_GWF-(1,8949)
        259          6          9  3.06396559E-02                    1_GWF-(1,24910)  3.82764159E-04                     1_GWF-(1,9290)
        260          6         10  2.83609859E-02                    1_GWF-(1,25210)  3.65886778E-04                     1_GWF-(1,9029)
        261          6         11  3.14024461E-02                    1_GWF-(1,26665)  4.09728197E-04                     1_GWF-(1,9051)
        262          6         12  2.61230680E-02                    1_GWF-(1,26218)  4.24293536E-04                     1_GWF-(1,9051)
        263          6         13  2.86129986E-02                    1_GWF-(1,26422)  3.70181933E-04                     1_GWF-(1,9051)
        264          6         14  3.06190723E-02                    1_GWF-(1,26486)  3.22530838E-04                     1_GWF-(1,9051)
        265          6         15  3.54305413E-02                    1_GWF-(1,26487)  3.32660664E-04                     1_GWF-(1,9051)
        266          6         16  2.65804857E-02                    1_GWF-(1,26486)  3.87725571E-04                     1_GWF-(1,9051)
        267          6         17 -2.23973015E-02                    1_GWF-(1,26665)  4.23613178E-04                     1_GWF-(1,9051)
        268          6         18  1.63695814E-02                    1_GWF-(1,26665)  3.92362767E-04                     1_GWF-(1,9051)
        269          6         19  1.47729752E-02                    1_GWF-(1,26622)  2.78905939E-04                     1_GWF-(1,9051)
        270          6         20  2.52543037E-02                    1_GWF-(1,26649)  2.25608927E-04                    1_GWF-(1,10010)
        271          6         21 -2.43505061E-02                    1_GWF-(1,26543)  3.20261197E-04                    1_GWF-(1,10010)
        272          6         22 -2.49797381E-02                    1_GWF-(1,26588)  3.49798127E-04                    1_GWF-(1,10010)
        273          6         23 -2.06369132E-02                    1_GWF-(1,26543)  2.71272225E-04                    1_GWF-(1,10010)
        274          6         24 -1.82304517E-02                    1_GWF-(1,26542)  2.15458089E-04                    1_GWF-(1,10011)
        275          6         25 -1.75732133E-02                    1_GWF-(1,26623)  2.75403991E-04                    1_GWF-(1,10011)
        276          6         26 -1.80860170E-02                    1_GWF-(1,26586)  3.34612956E-04                    1_GWF-(1,10010)
        277          6         27 -1.47815330E-02                    1_GWF-(1,25489)  2.72170196E-04                     1_GWF-(1,9989)
        278          6         28  1.99302967E-02                    1_GWF-(1,26588)  1.82534330E-04                    1_GWF-(1,10010)
        279          6         29  1.71150964E-02                    1_GWF-(1,26543)  1.98485502E-04                    1_GWF-(1,10011)
        280          6         30  1.54920348E-02                    1_GWF-(1,26542)  2.83593153E-04                    1_GWF-(1,10010)
        281          6         31  1.73068998E-02                    1_GWF-(1,26486)  3.19615964E-04                    1_GWF-(1,10010)
        282          6         32  1.36483392E-02                    1_GWF-(1,26544)  2.56073292E-04                    1_GWF-(1,10010)
        283          6         33  1.11346612E-02                    1_GWF-(1,26422)  1.78403438E-04                    1_GWF-(1,10011)
        284          6         34  1.03565188E-02                    1_GWF-(1,26350)  1.52433474E-04                    1_GWF-(1,10011)
        285          6         35  1.14710809E-02                    1_GWF-(1,26422)  1.42380140E-04                    1_GWF-(1,10010)
        286          6         36 -1.21167642E-02                    1_GWF-(1,26422)  1.45556501E-04                    1_GWF-(1,10010)
        287          6         37 -1.26788551E-02                    1_GWF-(1,26350)  1.12405948E-04                    1_GWF-(1,11531)
        288          6         38 -1.26049558E-02                    1_GWF-(1,26422)  1.15364168E-04                    1_GWF-(1,10843)
        289          6         39 -9.69644632E-03                    1_GWF-(1,26544)  1.19869317E-04                    1_GWF-(1,14938)
        290          6         40 -8.23420177E-03                    1_GWF-(1,26486)  1.90029620E-04                    1_GWF-(1,15107)
        291          6         41 -7.35940290E-03                    1_GWF-(1,26350)  1.27164542E-04                    1_GWF-(1,10842)
        292          6         42 -6.48987292E-03                    1_GWF-(1,26422)  1.56426265E-04                    1_GWF-(1,10843)
        293          6         43  6.16444111E-03                    1_GWF-(1,25515)  1.68644111E-04                    1_GWF-(1,10844)
        294          6         44  5.74407204E-03                    1_GWF-(1,25511)  1.87675941E-04                    1_GWF-(1,10843)
        295          6         45  5.64785786E-03                    1_GWF-(1,25502)  1.63909083E-04                    1_GWF-(1,10843)
        296          6         46  6.64087492E-03                    1_GWF-(1,25413)  1.40973476E-04                    1_GWF-(1,10843)
        297          6         47  7.04294121E-03                    1_GWF-(1,25271)  1.42566874E-04                    1_GWF-(1,15108)
        298          6         48  9.04172800E-03                    1_GWF-(1,26672)  1.74833438E-04                    1_GWF-(1,15109)
        299          6         49 -8.52069268E-03                    1_GWF-(1,26672)  1.77901925E-04                    1_GWF-(1,10843)
        300          6         50 -8.75718773E-03                    1_GWF-(1,26673)  1.62133551E-04                    1_GWF-(1,10843)
        301          7          1  8.51489110E-03                    1_GWF-(1,26673)  1.61914359E-04                    1_GWF-(1,10843)
        302          7          2  8.10802668E-03                    1_GWF-(1,26672)  2.28929712E-04                    1_GWF-(1,15109)
        303          7          3 -8.51407811E-03                    1_GWF-(1,26672)  2.27660106E-04                    1_GWF-(1,15108)
        304          7          4  6.19182007E-03                    1_GWF-(1,26672)  1.47323843E-04                    1_GWF-(1,15109)
        305          7          5 -5.64184575E-03                    1_GWF-(1,25420)  1.51207307E-04                    1_GWF-(1,10843)
        306          7          6 -5.04084540E-03                    1_GWF-(1,25504)  1.66231247E-04                    1_GWF-(1,10843)
        307          7          7 -5.28015948E-03                    1_GWF-(1,25518)  1.50800587E-04                    1_GWF-(1,10843)
        308          7          8 -5.50926247E-03                    1_GWF-(1,25515)  1.34555624E-04                    1_GWF-(1,10843)
        309          7          9 -5.59360819E-03                    1_GWF-(1,25645)  1.13167503E-04                    1_GWF-(1,15108)
        310          7         10 -5.29475493E-03                    1_GWF-(1,25674)  1.07639772E-04                    1_GWF-(1,10843)
        311          7         11 -5.83379852E-03                    1_GWF-(1,25768)  9.10253894E-05                    1_GWF-(1,10844)
        312          7         12  6.45423384E-03                    1_GWF-(1,26350)  9.68231924E-05                    1_GWF-(1,10843)
        313          7         13  9.33499359E-03                    1_GWF-(1,26422)  9.14025565E-05                    1_GWF-(1,10010)
        314          7         14  9.72607884E-03                    1_GWF-(1,26350)  1.11158591E-04                    1_GWF-(1,10010)
        315          7         15  1.06003330E-02                    1_GWF-(1,26422)  1.05265887E-04                    1_GWF-(1,10011)
        316          7         16  7.88875503E-03                    1_GWF-(1,26350)  9.93419569E-05                    1_GWF-(1,10011)
        317          7         17 -7.99675701E-03                    1_GWF-(1,26420)  1.04242609E-04                    1_GWF-(1,10011)
        318          7         18 -8.35673207E-03                    1_GWF-(1,26487)  1.47335295E-04                    1_GWF-(1,10010)
        319          7         19 -1.37236656E-02                    1_GWF-(1,26486)  1.99181368E-04                    1_GWF-(1,10010)
        320          7         20 -1.35645628E-02                    1_GWF-(1,26544)  2.09096899E-04                    1_GWF-(1,10010)
        321          7         21 -1.24393888E-02                    1_GWF-(1,26486)  1.53143238E-04                    1_GWF-(1,10010)
        322          7         22  7.70294365E-03                    1_GWF-(1,25733)  1.02735844E-04                    1_GWF-(1,10010)
        323          7         23  1.01413274E-02                    1_GWF-(1,26649)  1.32305913E-04                    1_GWF-(1,10011)
        324          7         24 -9.39909711E-03                    1_GWF-(1,26649)  1.70169272E-04                    1_GWF-(1,10011)
        325          7         25  1.20081106E-02                    1_GWF-(1,26649)  1.52227419E-04                    1_GWF-(1,10010)
        326          7         26  1.18126545E-02                    1_GWF-(1,26622)  1.20233673E-04                    1_GWF-(1,10010)
        327          7         27  9.11840900E-03                    1_GWF-(1,26623)  1.20822512E-04                    1_GWF-(1,10010)
        328          7         28 -8.10827627E-03                    1_GWF-(1,26623)  1.52853762E-04                    1_GWF-(1,10010)
        329          7         29  7.59446696E-03                    1_GWF-(1,25205)  1.46923264E-04                    1_GWF-(1,10010)
        330          7         30  7.79214271E-03                    1_GWF-(1,25335)  1.23701092E-04                    1_GWF-(1,15109)
        331          7         31  7.00393942E-03                    1_GWF-(1,25323)  1.44541304E-04                    1_GWF-(1,15107)
        332          7         32 -6.10771365E-03                    1_GWF-(1,26623)  1.52958649E-04                     1_GWF-(1,9051)
        333          7         33 -6.41912024E-03                    1_GWF-(1,26588)  1.53324088E-04                     1_GWF-(1,9051)
        334          7         34  7.81106237E-03                    1_GWF-(1,26622)  1.43843996E-04                     1_GWF-(1,9051)
        335          7         35 -8.32591270E-03                    1_GWF-(1,26665)  1.39624918E-04                     1_GWF-(1,9051)
        336          7         36  8.12542188E-03                    1_GWF-(1,26665)  1.40873725E-04                     1_GWF-(1,9051)
        337          7         37 -7.08799556E-03                    1_GWF-(1,26588)  1.34095502E-04                     1_GWF-(1,9051)
        338          7         38 -7.48376694E-03                    1_GWF-(1,25240)  1.12949652E-04                     1_GWF-(1,9052)
        339          7         39 -8.22680675E-03                    1_GWF-(1,26588)  7.98608239E-05                     1_GWF-(1,9051)
        340          7         40 -7.45180476E-03                    1_GWF-(1,25189)  8.18601494E-05                     1_GWF-(1,9029)
        341          7         41 -7.92952855E-03                    1_GWF-(1,25188)  1.15594303E-04                    1_GWF-(1,15107)
        342          7         42 -9.28647671E-03                    1_GWF-(1,26665)  1.34269904E-04                     1_GWF-(1,9291)
        343          7         43 -7.20845579E-03                    1_GWF-(1,24905)  1.44441175E-04                     1_GWF-(1,8949)
        344          7         44  6.50090645E-03                    1_GWF-(1,26217)  1.45310800E-04                     1_GWF-(1,9291)
        345          7         45  6.41799297E-03                    1_GWF-(1,26586)  1.24866433E-04                     1_GWF-(1,9291)
        346          7         46 -6.26391303E-03                    1_GWF-(1,21702) -1.50387672E-04                    1_GWF-(1,15108)
        347          7         47  6.72381420E-03                    1_GWF-(1,26218)  1.41105588E-04                     1_GWF-(1,9291)
        348          7         48  6.50652997E-03                    1_GWF-(1,26217)  1.33643606E-04                     1_GWF-(1,8949)
        349          7         49 -6.07550265E-03                    1_GWF-(1,26623)  1.41569967E-04                     1_GWF-(1,9291)
        350          7         50 -6.01132883E-03                    1_GWF-(1,26586)  1.17545441E-04                     1_GWF-(1,9292)
        351          8          1 -4.13522712E-03                    1_GWF-(1,26384)  1.42355539E-04                     1_GWF-(1,9291)
        352          8          2  4.29838991E-03                    1_GWF-(1,21652)  1.16093517E-04                     1_GWF-(1,9290)
        353          8          3 -5.02984947E-03                    1_GWF-(1,26217)  1.21985498E-04                     1_GWF-(1,9291)
        354          8          4 -5.64411065E-03                    1_GWF-(1,26218) -8.72019011E-05                    1_GWF-(1,15108)
        355          8          5 -5.21656940E-03                    1_GWF-(1,26348)  1.03091074E-04                     1_GWF-(1,9291)
        356          8          6 -5.30929467E-03                    1_GWF-(1,26218)  8.78118278E-05                     1_GWF-(1,9292)
        357          8          7  4.68136468E-03                    1_GWF-(1,24898)  1.09405471E-04                     1_GWF-(1,9291)
        358          8          8  4.72147393E-03                    1_GWF-(1,24910)  7.82737253E-05                     1_GWF-(1,8949)
        359          8          9  5.08671112E-03                    1_GWF-(1,26665)  6.17709037E-05                    1_GWF-(1,15107)
        360          8         10  4.31383766E-03                    1_GWF-(1,25210)  5.91268610E-05                     1_GWF-(1,9029)
        361          8         11  3.58464605E-03                    1_GWF-(1,26543)  5.57245091E-05                     1_GWF-(1,9051)
        362          8         12  5.25170039E-03                    1_GWF-(1,26218)  6.11129409E-05                     1_GWF-(1,9051)
        363          8         13  4.51461604E-03                    1_GWF-(1,26217)  5.98435788E-05                     1_GWF-(1,9051)
        364          8         14  3.24505025E-03                    1_GWF-(1,26588)  5.79479766E-05                     1_GWF-(1,9051)
        365          8         15  3.01293132E-03                    1_GWF-(1,26487)  5.36706092E-05                     1_GWF-(1,9051)
        366          8         16  3.41471017E-03                    1_GWF-(1,26665)  5.20963218E-05                     1_GWF-(1,9051)
        367          8         17 -2.95919580E-03                    1_GWF-(1,26622)  5.37650481E-05                     1_GWF-(1,9051)
        368          8         18  2.63010942E-03                    1_GWF-(1,26588)  4.90507705E-05                     1_GWF-(1,9051)
        369          8         19  2.43845639E-03                    1_GWF-(1,26623)  4.39091537E-05                    1_GWF-(1,15107)
        370          8         20 -2.31247613E-03                    1_GWF-(1,25331)  4.22439527E-05                    1_GWF-(1,10010)
        371          8         21 -3.06509166E-03                    1_GWF-(1,26586)  6.16467843E-05                    1_GWF-(1,10010)
        372          8         22 -3.39803079E-03                    1_GWF-(1,26623)  5.82641935E-05                    1_GWF-(1,10010)
        373          8         23 -3.17951140E-03                    1_GWF-(1,26622)  3.90449753E-05                    1_GWF-(1,10010)
        374          8         24 -3.38236855E-03                    1_GWF-(1,26588)  3.26568183E-05                    1_GWF-(1,10011)
        375          8         25 -3.15227672E-03                    1_GWF-(1,26622)  4.31262296E-05                    1_GWF-(1,10011)
        376          8         26 -2.56516299E-03                    1_GWF-(1,25489)  4.98801400E-05                     1_GWF-(1,9989)
        377          8         27 -2.32494887E-03                    1_GWF-(1,25489)  3.63963468E-05                     1_GWF-(1,9989)
        378          8         28 -2.24814595E-03                    1_GWF-(1,25693)  2.48392965E-05                    1_GWF-(1,15107)
        379          8         29  1.89513179E-03                    1_GWF-(1,26544)  3.20832700E-05                    1_GWF-(1,10010)
        380          8         30  3.64168769E-03                    1_GWF-(1,26486)  4.60196954E-05                    1_GWF-(1,10010)
        381          8         31  3.49482429E-03                    1_GWF-(1,26487)  4.54125874E-05                    1_GWF-(1,10010)
        382          8         32  2.94540299E-03                    1_GWF-(1,26486)  3.36596561E-05                    1_GWF-(1,10010)
        383          8         33  1.86920159E-03                    1_GWF-(1,26487)  2.31992684E-05                    1_GWF-(1,10011)
        384          8         34  1.82721905E-03                    1_GWF-(1,26420)  2.04882873E-05                    1_GWF-(1,10011)
        385          8         35  1.65493871E-03                    1_GWF-(1,26422)  1.95235514E-05                    1_GWF-(1,10010)
        386          8         36 -2.31776403E-03                    1_GWF-(1,26422)  2.10339093E-05                    1_GWF-(1,10010)
        387          8         37 -2.29676709E-03                    1_GWF-(1,26350)  1.77469792E-05                    1_GWF-(1,11531)
        388          8         38 -2.19343091E-03                    1_GWF-(1,26422)  1.87574914E-05                    1_GWF-(1,10843)
        389          8         39 -1.54079470E-03                    1_GWF-(1,26350)  1.78424880E-05                    1_GWF-(1,10845)
        390          8         40 -1.18681861E-03                    1_GWF-(1,26486)  2.98303184E-05                    1_GWF-(1,15107)
        391          8         41  1.07292328E-03                    1_GWF-(1,25674)  1.89874554E-05                    1_GWF-(1,10842)
        392          8         42  1.15089871E-03                    1_GWF-(1,25651)  2.30639046E-05                    1_GWF-(1,10843)
        393          8         43  1.00885461E-03                    1_GWF-(1,25515)  2.70592936E-05                     1_GWF-(1,9291)
        394          8         44  1.01652014E-03                    1_GWF-(1,26350)  3.22795027E-05                    1_GWF-(1,10843)
        395          8         45  9.39093847E-04                    1_GWF-(1,26422)  3.28361132E-05                     1_GWF-(1,9291)
        396          8         46  9.06712484E-04                    1_GWF-(1,25418)  2.80217894E-05                     1_GWF-(1,9292)
        397          8         47 -1.04773666E-03                    1_GWF-(1,26672)  3.46008553E-05                     1_GWF-(1,9291)
        398          8         48  1.45234557E-03                    1_GWF-(1,26672)  3.62997241E-05                    1_GWF-(1,15109)
        399          8         49 -1.24687582E-03                    1_GWF-(1,26672)  3.26116335E-05                     1_GWF-(1,9291)
        400          8         50 -1.32999271E-03                    1_GWF-(1,26673)  2.83100636E-05                     1_GWF-(1,9292)
        401          9          1  1.31517854E-03                    1_GWF-(1,26673)  2.88082089E-05                    1_GWF-(1,15108)
        402          9          2  1.20195525E-03                    1_GWF-(1,26672)  4.21047322E-05                    1_GWF-(1,15109)
        403          9          3 -1.38265862E-03                    1_GWF-(1,26672)  3.92387973E-05                    1_GWF-(1,15108)
        404          9          4  1.01040765E-03                    1_GWF-(1,26672)  2.74010548E-05                    1_GWF-(1,15109)
        405          9          5 -8.29581215E-04                    1_GWF-(1,25420)  2.59846426E-05                    1_GWF-(1,10843)
        406          9          6 -7.64620705E-04                    1_GWF-(1,23282)  2.83823638E-05                    1_GWF-(1,10843)
        407          9          7 -8.85116255E-04                    1_GWF-(1,26543)  2.32745572E-05                    1_GWF-(1,10843)
        408          9          8 -8.97421482E-04                    1_GWF-(1,25517)  1.96814021E-05                    1_GWF-(1,10843)
        409          9          9 -9.57783181E-04                    1_GWF-(1,22350)  1.82805901E-05                    1_GWF-(1,15108)
        410          9         10 -8.30402118E-04                    1_GWF-(1,25674)  1.64980001E-05                    1_GWF-(1,10843)
        411          9         11  1.12559626E-03                    1_GWF-(1,26486)  1.40599814E-05                    1_GWF-(1,10844)
        412          9         12  1.33367946E-03                    1_GWF-(1,26544)  1.71454672E-05                     1_GWF-(1,9291)
        413          9         13  1.71138216E-03                    1_GWF-(1,26486)  1.39728389E-05                     1_GWF-(1,9988)
        414          9         14  1.80330394E-03                    1_GWF-(1,26487)  1.65283984E-05                    1_GWF-(1,10010)
        415          9         15  1.72032676E-03                    1_GWF-(1,26486)  1.54745049E-05                    1_GWF-(1,10011)
        416          9         16  1.36379699E-03                    1_GWF-(1,26487)  1.45948302E-05                    1_GWF-(1,10011)
        417          9         17 -1.25787309E-03                    1_GWF-(1,26422)  1.45950613E-05                    1_GWF-(1,10011)
        418          9         18 -1.50441897E-03                    1_GWF-(1,26350)  2.06471898E-05                    1_GWF-(1,10010)
        419          9         19 -1.62580758E-03                    1_GWF-(1,26588)  3.11410211E-05                    1_GWF-(1,10010)
        420          9         20 -1.51646476E-03                    1_GWF-(1,26543)  3.55349720E-05                    1_GWF-(1,10010)
        421          9         21 -1.85931946E-03                    1_GWF-(1,26588)  2.76735500E-05                    1_GWF-(1,10010)
        422          9         22 -2.19912831E-03                    1_GWF-(1,26422)  1.68689064E-05                    1_GWF-(1,10010)
        423          9         23 -2.34038554E-03                    1_GWF-(1,26350)  1.70709173E-05                    1_GWF-(1,10010)
        424          9         24  1.54905970E-03                    1_GWF-(1,26420)  2.70376802E-05                    1_GWF-(1,10011)
        425          9         25  1.55722632E-03                    1_GWF-(1,26422)  2.79372541E-05                    1_GWF-(1,10011)
        426          9         26  1.57007901E-03                    1_GWF-(1,26649)  2.17225720E-05                    1_GWF-(1,10010)
        427          9         27 -1.89877194E-03                    1_GWF-(1,26649)  2.05275619E-05                    1_GWF-(1,10010)
        428          9         28  1.82927925E-03                    1_GWF-(1,26649)  2.56740804E-05                    1_GWF-(1,10010)
        429          9         29  1.41906730E-03                    1_GWF-(1,26622)  2.85866686E-05                    1_GWF-(1,10010)
        430          9         30  1.43160751E-03                    1_GWF-(1,26623)  3.68898502E-05                     1_GWF-(1,9291)
        431          9         31  1.06559230E-03                    1_GWF-(1,25328)  3.05958417E-05                     1_GWF-(1,9292)
        432          9         32  8.31220365E-04                    1_GWF-(1,25237)  4.16396595E-05                     1_GWF-(1,9291)
        433          9         33 -8.07594886E-04                    1_GWF-(1,26218)  3.64144975E-05                     1_GWF-(1,9292)
        434          9         34 -9.77368515E-04                    1_GWF-(1,26348)  5.29833012E-05                     1_GWF-(1,9291)
        435          9         35 -1.17278023E-03                    1_GWF-(1,26218) -4.56921103E-05                     1_GWF-(1,9291)
        436          9         36 -1.17545156E-03                    1_GWF-(1,26217)  4.54802532E-05                     1_GWF-(1,9291)
        437          9         37 -1.06413262E-03                    1_GWF-(1,26218) -3.09941126E-05                     1_GWF-(1,9291)
        438          9         38 -1.22297279E-03                    1_GWF-(1,26217)  3.41197503E-05                     1_GWF-(1,9291)
        439          9         39 -1.22912902E-03                    1_GWF-(1,26218)  2.06258777E-05                     1_GWF-(1,9292)
        440          9         40 -1.13928627E-03                    1_GWF-(1,25189)  1.45630889E-05                     1_GWF-(1,9029)
        441          9         41 -1.27001109E-03                    1_GWF-(1,25188)  2.86598899E-05                     1_GWF-(1,9291)
        442          9         42 -1.27561328E-03                    1_GWF-(1,24910)  3.16414249E-05                     1_GWF-(1,9292)
        443          9         43 -1.40366353E-03                    1_GWF-(1,26665)  4.63576275E-05                     1_GWF-(1,9291)
        444          9         44  1.47467860E-03                    1_GWF-(1,26665)  2.70667704E-05                     1_GWF-(1,9292)
        445          9         45  1.03955276E-03                    1_GWF-(1,26666)  2.08283214E-05                     1_GWF-(1,9290)
        446          9         46  9.13784547E-04                    1_GWF-(1,26348)  3.24041090E-05                     1_GWF-(1,9291)
        447          9         47  1.19677861E-03                    1_GWF-(1,26218)  3.59553432E-05                     1_GWF-(1,9292)
        448          9         48  1.19308566E-03                    1_GWF-(1,26217)  5.80290460E-05                     1_GWF-(1,9291)
        449          9         49  7.62142683E-04                    1_GWF-(1,26218)  4.92806821E-05                     1_GWF-(1,9292)
        450          9         50 -6.93477039E-04                    1_GWF-(1,26586)  7.86550478E-05                     1_GWF-(1,9291)
        451         10          1 -6.40450278E-04                    1_GWF-(1,26384)  5.41419457E-05                     1_GWF-(1,9292)
        452         10          2  6.24606557E-04                    1_GWF-(1,21652)  6.96567352E-05                     1_GWF-(1,9291)
        453         10          3 -8.99077867E-04                    1_GWF-(1,26217)  4.86821527E-05                     1_GWF-(1,9292)
        454         10          4 -9.78573669E-04                    1_GWF-(1,26218)  5.96198550E-05                     1_GWF-(1,9291)
        455         10          5 -8.09509385E-04                    1_GWF-(1,26348)  4.47380736E-05                     1_GWF-(1,9292)
        456         10          6 -7.22950950E-04                    1_GWF-(1,26218)  4.76129585E-05                     1_GWF-(1,9291)
        457         10          7 -8.80242765E-04                    1_GWF-(1,26665)  2.33394522E-05                     1_GWF-(1,9292)
        458         10          8  8.37207106E-04                    1_GWF-(1,26665)  1.25894150E-05                     1_GWF-(1,8952)
        459         10          9 -7.28504892E-04                    1_GWF-(1,26674)  2.83126233E-05                     1_GWF-(1,9291)
        460         10         10  6.72438653E-04                    1_GWF-(1,25210)  2.75186131E-05                     1_GWF-(1,9292)
        461         10         11  5.68813971E-04                    1_GWF-(1,25291)  3.24456113E-05                     1_GWF-(1,9291)
        462         10         12  7.86135153E-04                    1_GWF-(1,26218)  1.68083041E-05                     1_GWF-(1,9292)
        463         10         13  6.02826562E-04                    1_GWF-(1,26543)  1.14041997E-05                     1_GWF-(1,9051)
        464         10         14  6.66382190E-04                    1_GWF-(1,26487)  1.11487806E-05                     1_GWF-(1,9051)
        465         10         15  7.54816926E-04                    1_GWF-(1,26486)  1.33702936E-05                     1_GWF-(1,9292)
        466         10         16  5.58252699E-04                    1_GWF-(1,26487)  1.65581548E-05                     1_GWF-(1,9291)
        467         10         17  4.46043016E-04                    1_GWF-(1,26218)  8.43217993E-06                     1_GWF-(1,9052)
        468         10         18 -2.78301515E-04                    1_GWF-(1,26218)  7.70411577E-06                     1_GWF-(1,9051)
        469         10         19 -2.86200555E-04                    1_GWF-(1,26217)  1.02470608E-05                     1_GWF-(1,9291)
        470         10         20 -3.53956767E-04                    1_GWF-(1,25331)  1.43068614E-05                     1_GWF-(1,9292)
        471         10         21 -3.93273217E-04                    1_GWF-(1,25335)  2.43087438E-05                     1_GWF-(1,9291)
        472         10         22 -5.35505154E-04                    1_GWF-(1,26487)  1.76303000E-05                     1_GWF-(1,9292)
        473         10         23 -6.57168175E-04                    1_GWF-(1,26486)  1.18625589E-05                     1_GWF-(1,9291)
        474         10         24 -6.91379572E-04                    1_GWF-(1,26487)  7.34241373E-06                     1_GWF-(1,9291)
        475         10         25 -4.41516500E-04                    1_GWF-(1,26623) -1.86542718E-05                     1_GWF-(1,9291)
        476         10         26 -3.93590310E-04                    1_GWF-(1,25694)  2.71180608E-05                     1_GWF-(1,9291)
        477         10         27 -3.45516720E-04                    1_GWF-(1,25489) -2.87738052E-05                     1_GWF-(1,9291)
        478         10         28  3.36851296E-04                    1_GWF-(1,26543)  2.58216197E-05                     1_GWF-(1,9291)
        479         10         29  3.82108887E-04                    1_GWF-(1,26420) -1.78969854E-05                     1_GWF-(1,9291)
        480         10         30  3.94344812E-04                    1_GWF-(1,26543)  7.69791124E-06                    1_GWF-(1,10010)
        481         10         31  3.96322118E-04                    1_GWF-(1,26588) -1.15911046E-05                     1_GWF-(1,9292)
        482         10         32  2.58111992E-04                    1_GWF-(1,26543) -2.30017536E-05                     1_GWF-(1,9291)
        483         10         33  2.40099172E-04                    1_GWF-(1,26588)  1.89339003E-05                     1_GWF-(1,9291)
        484         10         34  2.09682770E-04                    1_GWF-(1,26350) -1.81059280E-05                     1_GWF-(1,9291)
        485         10         35 -2.25285289E-04                    1_GWF-(1,26350)  1.17272596E-05                     1_GWF-(1,9291)
        486         10         36 -3.53332276E-04                    1_GWF-(1,26422) -3.93536738E-06                     1_GWF-(1,9291)
        487         10         37 -3.72932556E-04                    1_GWF-(1,26350) -6.77628266E-06                     1_GWF-(1,9291)
        488         10         38 -3.65720142E-04                    1_GWF-(1,26422)  1.47046020E-05                     1_GWF-(1,9291)
        489         10         39 -2.65137241E-04                    1_GWF-(1,26350) -1.55705807E-05                     1_GWF-(1,9291)
        490         10         40 -2.01042541E-04                    1_GWF-(1,26486)  1.94441813E-05                     1_GWF-(1,9291)
        491         10         41  1.69520578E-04                    1_GWF-(1,25763) -1.98616347E-05                     1_GWF-(1,9291)
        492         10         42  1.87592727E-04                    1_GWF-(1,25645)  2.09741781E-05                     1_GWF-(1,9291)
        493         10         43  1.66716631E-04                    1_GWF-(1,25515) -1.77774237E-05                     1_GWF-(1,9291)
        494         10         44  1.58257975E-04                    1_GWF-(1,26350)  2.00719083E-05                     1_GWF-(1,9291)
        495         10         45 -1.32067889E-04                    1_GWF-(1,20336) -1.49155427E-05                     1_GWF-(1,9291)
        496         10         46  1.49345180E-04                    1_GWF-(1,25262)  1.73922849E-05                     1_GWF-(1,9291)
        497         10         47 -1.70571621E-04                    1_GWF-(1,26672) -1.19508714E-05                     1_GWF-(1,9291)
        498         10         48  2.20153276E-04                    1_GWF-(1,26672)  1.31818952E-05                     1_GWF-(1,9291)
        499         10         49 -1.69437476E-04                    1_GWF-(1,26672)  8.50403249E-06                     1_GWF-(1,9292)
        500         10         50 -1.93084705E-04                    1_GWF-(1,26673)  9.85053161E-06                     1_GWF-(1,9291)
        501         11          1  1.94616533E-04                    1_GWF-(1,26673)  6.62089239E-06                     1_GWF-(1,9292)
        502         11          2  1.68863220E-04                    1_GWF-(1,26672)  7.76526270E-06                     1_GWF-(1,9291)
        503         11          3 -2.03931801E-04                    1_GWF-(1,26672)  5.58523126E-06                    1_GWF-(1,15108)
        504         11          4 -1.79168715E-04                    1_GWF-(1,26649)  4.03480719E-06                    1_GWF-(1,10842)
        505         11          5 -2.21797667E-04                    1_GWF-(1,26622)  4.41615677E-06                    1_GWF-(1,10843)
        506         11          6  1.86019206E-04                    1_GWF-(1,26622)  4.96896789E-06                    1_GWF-(1,10843)
        507         11          7 -1.47032447E-04                    1_GWF-(1,26543)  5.12723333E-06                     1_GWF-(1,9291)
        508         11          8 -1.50795087E-04                    1_GWF-(1,26623) -3.46220547E-06                     1_GWF-(1,9291)
        509         11          9 -1.71765685E-04                    1_GWF-(1,22353)  3.03621184E-06                    1_GWF-(1,15109)
        510         11         10 -1.45674215E-04                    1_GWF-(1,25179)  2.53173970E-06                    1_GWF-(1,10843)
        511         11         11 -1.29208794E-04                    1_GWF-(1,25763)  2.32658429E-06                    1_GWF-(1,10843)
        512         11         12  1.84494024E-04                    1_GWF-(1,26486)  2.47850474E-06                    1_GWF-(1,10844)
        513         11         13  1.76332705E-04                    1_GWF-(1,26544)  2.81288956E-06                    1_GWF-(1,10843)
        514         11         14  2.11291679E-04                    1_GWF-(1,26486) -2.99454737E-06                     1_GWF-(1,9292)
        515         11         15  2.34330654E-04                    1_GWF-(1,26487) -2.72020143E-06                     1_GWF-(1,9291)
        516         11         16  2.05057414E-04                    1_GWF-(1,26486)  2.53250378E-06                    1_GWF-(1,10011)
        517         11         17 -1.55919772E-04                    1_GWF-(1,26623)  2.97014411E-06                     1_GWF-(1,9291)
        518         11         18 -2.12667030E-04                    1_GWF-(1,26422) -5.35332043E-06                     1_GWF-(1,9291)
        519         11         19 -2.70901827E-04                    1_GWF-(1,26350) -5.09306007E-06                     1_GWF-(1,9292)
        520         11         20 -2.98753911E-04                    1_GWF-(1,26422) -6.08447525E-06                     1_GWF-(1,9291)
        521         11         21 -3.49797868E-04                    1_GWF-(1,26420)  5.20145384E-06                    1_GWF-(1,10010)
        522         11         22 -3.58851289E-04                    1_GWF-(1,26421)  3.04011586E-06                    1_GWF-(1,10010)
        523         11         23 -3.03632900E-04                    1_GWF-(1,26588) -5.25668039E-06                     1_GWF-(1,9291)
        524         11         24 -3.17373271E-04                    1_GWF-(1,26543)  6.62153794E-06                     1_GWF-(1,9291)
        525         11         25 -3.10319552E-04                    1_GWF-(1,26588) -5.15805506E-06                     1_GWF-(1,9291)
        526         11         26  3.29978221E-04                    1_GWF-(1,26588)  3.83927232E-06                    1_GWF-(1,10010)
        527         11         27  2.45833330E-04                    1_GWF-(1,26589)  3.14833717E-06                    1_GWF-(1,10010)
        528         11         28  2.47353523E-04                    1_GWF-(1,26486)  4.44745474E-06                     1_GWF-(1,9292)
[...]
        652         14          2 -2.70767605E-05                    1_GWF-(1,26649)  5.38124312E-07                     1_GWF-(1,9290)
        653         14          3 -1.67491852E-05                    1_GWF-(1,26486)  9.41978774E-07                     1_GWF-(1,9291)
        654         14          4  1.74980853E-05                    1_GWF-(1,21692)  1.01612715E-06                     1_GWF-(1,9292)
        655         14          5  1.62950503E-05                    1_GWF-(1,25517)  1.63012193E-06                     1_GWF-(1,9291)
        656         14          6  1.86114189E-05                    1_GWF-(1,25532)  1.33814498E-06                     1_GWF-(1,9292)
        657         14          7  1.94947608E-05                    1_GWF-(1,25545)  1.61011742E-06                     1_GWF-(1,9291)
        658         14          8  1.94855731E-05                    1_GWF-(1,24911)  1.08009109E-06                     1_GWF-(1,9292)
        659         14          9  1.93121196E-05                    1_GWF-(1,26486)  1.29178074E-06                     1_GWF-(1,9291)
        660         14         10  1.86965347E-05                    1_GWF-(1,26648)  7.12166905E-07                     1_GWF-(1,9292)
        661         14         11  2.22855002E-05                    1_GWF-(1,26649)  2.63949251E-07                     1_GWF-(1,9292)
        662         14         12 -1.75337547E-05                    1_GWF-(1,26649)  9.81440239E-07                     1_GWF-(1,9291)
        663         14         13  1.31375591E-05                    1_GWF-(1,26543) -1.11197804E-06                     1_GWF-(1,9291)
        664         14         14  1.13869028E-05                    1_GWF-(1,26421)  1.27993206E-06                     1_GWF-(1,9291)
        665         14         15  2.12310410E-05                    1_GWF-(1,26420) -7.61375761E-07                     1_GWF-(1,9291)
        666         14         16  1.69400477E-05                    1_GWF-(1,26487)  2.34041707E-07                     1_GWF-(1,9051)
        667         14         17  1.75591889E-05                    1_GWF-(1,26588)  7.59866373E-07                     1_GWF-(1,9291)
        668         14         18  1.58440193E-05                    1_GWF-(1,26543) -8.08310109E-07                     1_GWF-(1,9291)
        669         14         19  1.17114140E-05                    1_GWF-(1,26588)  8.40106966E-07                     1_GWF-(1,9291)
        670         14         20 -1.38078152E-05                    1_GWF-(1,26588)  4.74516539E-07                     1_GWF-(1,9292)
        671         14         21 -1.34980172E-05                    1_GWF-(1,26589)  3.03351893E-07                     1_GWF-(1,9291)
        672         14         22 -1.59067678E-05                    1_GWF-(1,26486)  3.11767217E-07                    1_GWF-(1,15107)
        673         14         23 -1.67436393E-05                    1_GWF-(1,26544) -4.02934867E-07                     1_GWF-(1,9291)
        674         14         24 -1.48987696E-05                    1_GWF-(1,26422)  6.19817557E-07                     1_GWF-(1,9291)
        675         14         25 -1.62116072E-05                    1_GWF-(1,26350) -6.38473081E-07                     1_GWF-(1,9291)
        676         14         26 -1.56489737E-05                    1_GWF-(1,26422)  4.85258932E-07                     1_GWF-(1,9291)
        677         14         27 -1.21024553E-05                    1_GWF-(1,26665) -2.50684757E-07                     1_GWF-(1,9291)
        678         14         28 -1.32956957E-05                    1_GWF-(1,26666) -2.04374351E-07                    1_GWF-(1,15107)
        679         14         29 -1.36885029E-05                    1_GWF-(1,26665)  3.27545965E-07                     1_GWF-(1,9291)
        680         14         30  9.19411313E-06                    1_GWF-(1,26422) -4.19144877E-07                     1_GWF-(1,9291)
        681         14         31  9.64052695E-06                    1_GWF-(1,26486)  2.16235027E-07                    1_GWF-(1,10010)
        682         14         32  8.66901157E-06                    1_GWF-(1,26487)  1.51628835E-07                    1_GWF-(1,15107)
        683         14         33  1.01604870E-05                    1_GWF-(1,26622) -2.89260514E-07                     1_GWF-(1,9291)
        684         14         34 -7.09176008E-06                    1_GWF-(1,26622)  3.07338396E-07                     1_GWF-(1,9291)
        685         14         35 -6.43397130E-06                    1_GWF-(1,26649) -2.50527214E-07                     1_GWF-(1,9291)
        686         14         36 -6.24504011E-06                    1_GWF-(1,26422) -1.20823991E-07                     1_GWF-(1,9292)
        687         14         37 -7.45495329E-06                    1_GWF-(1,26218)  1.66461451E-07                    1_GWF-(1,15107)
        688         14         38 -7.58037000E-06                    1_GWF-(1,26217) -2.48926090E-07                    1_GWF-(1,15107)
        689         14         39 -6.19901515E-06                    1_GWF-(1,26218)  2.40825519E-07                     1_GWF-(1,9291)
        690         14         40  4.64211335E-06                    1_GWF-(1,25768) -2.88358605E-07                     1_GWF-(1,9291)
        691         14         41  5.24262507E-06                    1_GWF-(1,26217)  3.72017233E-07                     1_GWF-(1,9291)
        692         14         42  5.66080894E-06                    1_GWF-(1,25645) -3.98014427E-07                     1_GWF-(1,9291)
        693         14         43  5.09326331E-06                    1_GWF-(1,26420)  3.81031497E-07                     1_GWF-(1,9291)
        694         14         44 -6.21187884E-06                    1_GWF-(1,26649)  1.67175016E-07                     1_GWF-(1,9292)
        695         14         45 -7.46019934E-06                    1_GWF-(1,26622)  1.73895786E-07                    1_GWF-(1,10845)
        696         14         46  7.45669960E-06                    1_GWF-(1,26487)  3.62455947E-07                     1_GWF-(1,9291)
        697         14         47  5.23025357E-06                    1_GWF-(1,26486) -3.31271081E-07                     1_GWF-(1,9291)
        698         14         48  4.15421440E-06                    1_GWF-(1,25291)  3.96829032E-07                     1_GWF-(1,9291)
        699         14         49  3.93732548E-06                    1_GWF-(1,26589)  2.57064612E-07                     1_GWF-(1,9292)
        700         14         50  3.12328443E-06                    1_GWF-(1,26622)  3.09289504E-07                     1_GWF-(1,9291)
        701         15          1  3.93470606E-06                    1_GWF-(1,26487) -3.53340212E-07                     1_GWF-(1,9291)
        702         15          2 -5.77709993E-06                    1_GWF-(1,26649)  3.53209311E-07                     1_GWF-(1,9291)
        703         15          3 -5.54830419E-06                    1_GWF-(1,26588)  1.52027744E-07                    1_GWF-(1,15108)
        704         15          4 -6.27735719E-06                    1_GWF-(1,26649)  2.52330332E-07                     1_GWF-(1,9292)
        705         15          5 -4.67012239E-06                    1_GWF-(1,26622)  4.33685597E-07                     1_GWF-(1,9291)
        706         15          6  4.01521133E-06                    1_GWF-(1,26622) -3.56283889E-07                     1_GWF-(1,9291)
        707         15          7 -6.46218896E-06                    1_GWF-(1,26543)  3.12256558E-07                     1_GWF-(1,9291)
        708         15          8 -8.95759908E-06                    1_GWF-(1,26588)  9.22553501E-08                    1_GWF-(1,10842)
        709         15          9  6.98620651E-06                    1_GWF-(1,26588) -3.05574244E-07                     1_GWF-(1,9291)
        710         15         10  5.26555694E-06                    1_GWF-(1,26543)  4.82712375E-07                     1_GWF-(1,9291)
        711         15         11 -4.75123720E-06                    1_GWF-(1,26217) -5.30286600E-07                     1_GWF-(1,9291)
        712         15         12  4.15311261E-06                    1_GWF-(1,26217)  4.72821927E-07                     1_GWF-(1,9291)
        713         15         13  4.88577558E-06                    1_GWF-(1,26218) -2.56545781E-07                     1_GWF-(1,9291)
        714         15         14  4.37452559E-06                    1_GWF-(1,26420)  9.55244700E-08                     1_GWF-(1,9988)
        715         15         15  7.62363220E-06                    1_GWF-(1,26487)  1.33799856E-07                     1_GWF-(1,9291)
        716         15         16  7.35925425E-06                    1_GWF-(1,26486) -2.25699588E-07                     1_GWF-(1,9291)
        717         15         17  5.73478913E-06                    1_GWF-(1,26487)  1.49133217E-07                     1_GWF-(1,9291)
        718         15         18 -4.54161820E-06                    1_GWF-(1,26422) -9.12674192E-08                     1_GWF-(1,9291)
        719         15         19 -5.28755446E-06                    1_GWF-(1,26350)  1.38477433E-07                    1_GWF-(1,15107)
        720         15         20 -7.26962578E-06                    1_GWF-(1,26217)  1.73697200E-07                    1_GWF-(1,10010)
        721         15         21 -9.15922057E-06                    1_GWF-(1,26665) -2.69440144E-07                     1_GWF-(1,9291)
        722         15         22  9.63710652E-06                    1_GWF-(1,26665)  2.52153003E-07                     1_GWF-(1,9291)
        723         15         23  8.16436150E-06                    1_GWF-(1,26666) -1.14144778E-07                     1_GWF-(1,9291)
        724         15         24 -6.81366375E-06                    1_GWF-(1,26623)  2.05522589E-07                    1_GWF-(1,15107)
        725         15         25  6.57696486E-06                    1_GWF-(1,26218)  2.83995205E-07                     1_GWF-(1,9291)
        726         15         26  7.65341921E-06                    1_GWF-(1,26217) -3.93849921E-07                     1_GWF-(1,9291)
        727         15         27  5.11144226E-06                    1_GWF-(1,26350)  4.97295995E-07                     1_GWF-(1,9291)
        728         15         28  4.62613151E-06                    1_GWF-(1,26422) -4.75985967E-07                     1_GWF-(1,9291)
        729         15         29  4.78555275E-06                    1_GWF-(1,26350)  6.19903170E-07                     1_GWF-(1,9291)
        730         15         30  5.11125389E-06                    1_GWF-(1,26422) -6.44398227E-07                     1_GWF-(1,9291)
        731         15         31  5.78393261E-06                    1_GWF-(1,26350)  7.15203039E-07                     1_GWF-(1,9291)
        732         15         32  7.02684816E-06                    1_GWF-(1,26422) -5.02387106E-07                     1_GWF-(1,9291)
        733         15         33 -5.98902566E-06                    1_GWF-(1,26422)  2.46996020E-07                     1_GWF-(1,9291)
        734         15         34  6.87520980E-06                    1_GWF-(1,26623)  2.82695927E-07                     1_GWF-(1,9291)
        735         15         35  6.30780913E-06                    1_GWF-(1,26622) -4.87085518E-07                     1_GWF-(1,9291)
        736         15         36 -7.46980376E-06                    1_GWF-(1,26486)  4.23443918E-07                     1_GWF-(1,9291)
        737         15         37 -6.09117164E-06                    1_GWF-(1,26544)  1.37019792E-07                     1_GWF-(1,9292)
        738         15         38 -6.20723265E-06                    1_GWF-(1,26543)  1.38042015E-07                     1_GWF-(1,9292)
        739         15         39 -6.42732124E-06                    1_GWF-(1,26588)  4.30943781E-07                     1_GWF-(1,9291)
        740         15         40 -5.99240620E-06                    1_GWF-(1,26543)  3.72113662E-07                     1_GWF-(1,9292)
        741         15         41 -6.47498756E-06                    1_GWF-(1,26588)  3.87914112E-07                     1_GWF-(1,9291)
        742         15         42  7.65094333E-06                    1_GWF-(1,26588)  1.18310862E-07                     1_GWF-(1,8952)
        743         15         43 -7.52821171E-06                    1_GWF-(1,26588)  2.54526238E-07                     1_GWF-(1,9292)
        744         15         44 -4.98157824E-06                    1_GWF-(1,26589)  5.50209379E-07                     1_GWF-(1,9291)
        745         15         45 -4.60211247E-06                    1_GWF-(1,26422)  4.94014133E-07                     1_GWF-(1,9292)
        746         15         46  4.85991349E-06                    1_GWF-(1,26588)  6.96920653E-07                     1_GWF-(1,9291)
        747         15         47  4.80946945E-06                    1_GWF-(1,26350) -5.70650839E-07                     1_GWF-(1,9291)
        748         15         48  4.56234479E-06                    1_GWF-(1,26487)  5.70251011E-07                     1_GWF-(1,9291)
        749         15         49  6.06520952E-06                    1_GWF-(1,26486)  9.76537702E-08                     1_GWF-(1,8949)
        750         15         50  6.43975773E-06                    1_GWF-(1,26487)  3.68591009E-07                     1_GWF-(1,9292)
        751         16          1 -6.61619068E-06                    1_GWF-(1,26487)  4.91969478E-07                     1_GWF-(1,9291)
        752         16          2 -6.29421200E-06                    1_GWF-(1,26486)  2.03889216E-07                     1_GWF-(1,9291)
        753         16          3 -4.03267300E-06                    1_GWF-(1,26487)  4.35215648E-07                     1_GWF-(1,9292)
        754         16          4 -3.47469359E-06                    1_GWF-(1,26420)  5.06686077E-07                     1_GWF-(1,9291)
        755         16          5 -3.32753071E-06                    1_GWF-(1,26588) -5.00792865E-07                     1_GWF-(1,9291)
        756         16          6  2.88589398E-06                    1_GWF-(1,25527)  5.87831343E-07                     1_GWF-(1,9291)
        757         16          7  3.53292017E-06                    1_GWF-(1,25495)  2.50479558E-07                     1_GWF-(1,9292)
        758         16          8  4.30010720E-06                    1_GWF-(1,26588)  1.31864446E-07                     1_GWF-(1,9291)
        759         16          9 -4.65814634E-06                    1_GWF-(1,26588)  1.76144143E-07                     1_GWF-(1,9291)
        760         16         10 -3.39531138E-06                    1_GWF-(1,26543)  2.24116244E-07                     1_GWF-(1,9292)
        761         16         11  2.81689981E-06                    1_GWF-(1,26543)  3.13369704E-07                     1_GWF-(1,9291)
        762         16         12  3.14447093E-06                    1_GWF-(1,26588)  1.52514898E-07                     1_GWF-(1,9292)
        763         16         13  3.03338748E-06                    1_GWF-(1,26422)  6.21472291E-08                     1_GWF-(1,9051)
        764         16         14  3.00700309E-06                    1_GWF-(1,26544)  1.32275651E-07                     1_GWF-(1,9291)
        765         16         15  3.22924792E-06                    1_GWF-(1,26486) -2.24051756E-07                     1_GWF-(1,9291)
        766         16         16  2.68147063E-06                    1_GWF-(1,26649)  2.34067090E-07                     1_GWF-(1,9291)
        767         16         17 -2.49771784E-06                    1_GWF-(1,26649)  4.11286075E-08                     1_GWF-(1,9052)
        768         16         18  2.06509223E-06                    1_GWF-(1,26421) -1.37880159E-07                     1_GWF-(1,9291)
        769         16         19 -2.62649364E-06                    1_GWF-(1,26422)  2.78163019E-07                     1_GWF-(1,9291)
        770         16         20 -2.21522849E-06                    1_GWF-(1,26350) -2.93057423E-07                     1_GWF-(1,9291)
        771         16         21 -2.15780732E-06                    1_GWF-(1,26623)  2.61131536E-07                     1_GWF-(1,9291)
        772         16         22 -1.94531680E-06                    1_GWF-(1,26622)  1.09067136E-07                     1_GWF-(1,9292)
        773         16         23  2.37978116E-06                    1_GWF-(1,26665)  4.25873854E-08                    1_GWF-(1,15107)
        774         16         24  2.55154973E-06                    1_GWF-(1,26666)  1.38103168E-07                     1_GWF-(1,9291)
        775         16         25  2.44584050E-06                    1_GWF-(1,26665) -2.09685664E-07                     1_GWF-(1,9291)
        776         16         26 -2.21131949E-06                    1_GWF-(1,26422)  2.01191474E-07                     1_GWF-(1,9291)
        777         16         27 -1.57467003E-06                    1_GWF-(1,25485) -1.63873548E-07                     1_GWF-(1,9291)
        778         16         28 -1.50594959E-06                    1_GWF-(1,26486)  9.00811893E-08                     1_GWF-(1,9291)
        779         16         29  2.02877421E-06                    1_GWF-(1,26649)  3.00351764E-08                    1_GWF-(1,10010)
        780         16         30  2.12094743E-06                    1_GWF-(1,26487) -7.50727733E-08                     1_GWF-(1,9291)
        781         16         31  1.98975876E-06                    1_GWF-(1,26486)  7.38860542E-08                     1_GWF-(1,9291)
        782         16         32  1.37558536E-06                    1_GWF-(1,26217) -7.44259019E-08                     1_GWF-(1,9291)
        783         16         33  1.24908936E-06                    1_GWF-(1,26350) -3.52830778E-08                     1_GWF-(1,9292)
        784         16         34  9.89037032E-07                    1_GWF-(1,26422)  1.79157596E-08                    1_GWF-(1,10011)
        785         17          1  1.01414460E-06                    1_GWF-(1,26218)  1.96565007E-08                    1_GWF-(1,15107)
        786         17          2 -1.03609222E-06                    1_GWF-(1,26218)  2.38602844E-08                    1_GWF-(1,10010)
        787         17          3 -1.15154757E-06                    1_GWF-(1,26217)  2.65561151E-08                    1_GWF-(1,10010)
        788         17          4  1.14886421E-06                    1_GWF-(1,26622)  2.19837499E-08                    1_GWF-(1,10011)
        789         17          5 -1.32583395E-06                    1_GWF-(1,26622)  1.75544123E-08                    1_GWF-(1,10011)
        790         17          6 -1.06179673E-06                    1_GWF-(1,26649)  1.61597740E-08                    1_GWF-(1,10010)
        791         17          7  8.71872174E-07                    1_GWF-(1,25554)  1.70349294E-08                    1_GWF-(1,10010)
        792         18          1 -7.88651377E-07                    1_GWF-(1,26217)  1.47053800E-08                    1_GWF-(1,10011)
 --------------------------------------------------------------------------------------------------------------------------------------



 MEMORY MANAGER TOTAL STORAGE BY DATA TYPE, IN MEGABYTES
 -------------------------------
                    ALLOCATED   
 DATA TYPE           MEMORY     
 -------------------------------
 Character        4.66090000E-02
 Logical          4.40000000E-05
 Integer          5.2037920     
 Real             11.901376     
 -------------------------------
 Total            17.151821     
 -------------------------------



 Run end date and time (yyyy/mm/dd hh:mm:ss): 2022/04/08 15:15:12
 Elapsed run time:  1.055 Seconds
 Normal termination of simulation.
