                                   MODFLOW 6
                U.S. GEOLOGICAL SURVEY MODULAR HYDROLOGIC MODEL
                            VERSION 6.2.2 07/30/2021

   MODFLOW 6 compiled Jul 31 2021 14:22:53 with IFORT compiler (ver. 19.10.3)

This software has been approved for release by the U.S. Geological 
Survey (USGS). Although the software has been subjected to rigorous 
review, the USGS reserves the right to update the software as needed 
pursuant to further analysis and review. No warranty, expressed or 
implied, is made by the USGS or the U.S. Government as to the 
functionality of the software and related material nor shall the 
fact of release constitute any such warranty. Furthermore, the 
software is released on condition that neither the USGS nor the U.S. 
Government shall be held liable for any damages resulting from its 
authorized or unauthorized use. Also refer to the USGS Water 
Resources Software User Rights Notice for complete use, copyright, 
and distribution information.


System command used to initiate simulation:
mf6

MODFLOW was compiled using uniform precision.

Real Variables
  KIND: 8
  TINY (smallest non-zero value):    2.225074-308
  HUGE (largest value):    1.797693+308
  PRECISION: 15
  BIT SIZE: 64

Integer Variables
  KIND: 4
  HUGE (largest value): 2147483647
  BIT SIZE: 32

Long Integer Variables
  KIND: 8
  HUGE (largest value): 9223372036854775807
  BIT SIZE: 64

Logical Variables
  KIND: 4
  BIT SIZE: 32
 

 OPENED mfsim.nam
 FILE TYPE:NAM   UNIT 1001   STATUS:OLD                 
 FORMAT:FORMATTED              ACCESS:SEQUENTIAL          
 ACTION:READ                

 # File generated by Flopy version 3.3.5 on 04/28/2022 at 15:58:30.

 READING SIMULATION OPTIONS
 END OF SIMULATION OPTIONS

 READING SIMULATION TIMING

 OPENED mfsim.tdis
 FILE TYPE:TDIS   UNIT 1002   STATUS:OLD                 
 FORMAT:FORMATTED              ACCESS:SEQUENTIAL          
 ACTION:READ                


 TDIS -- TEMPORAL DISCRETIZATION PACKAGE,
 VERSION 1 : 11/13/2014 - INPUT READ FROM UNIT 1002
 # File generated by Flopy version 3.3.5 on 04/28/2022 at 15:58:30.
 PROCESSING TDIS OPTIONS
    SIMULATION TIME UNIT IS SECONDS
 END OF TDIS OPTIONS
 PROCESSING TDIS DIMENSIONS
    1 STRESS PERIOD(S) IN SIMULATION
 END OF TDIS DIMENSIONS
 PROCESSING TDIS PERIODDATA


 STRESS PERIOD     LENGTH       TIME STEPS     MULTIPLIER FOR DELT
 ----------------------------------------------------------------------------
        1         1.000000          1                    1.000
 END OF TDIS PERIODDATA
 END OF SIMULATION TIMING

 READING SIMULATION MODELS
    GWF6 model ML will be created as model 1
 END OF SIMULATION MODELS

 READING SIMULATION EXCHANGES
 END OF SIMULATION EXCHANGES

 READING SOLUTIONGROUP

 Creating solution: SLN_1           

 OPENED mfsim.ims
 FILE TYPE:IMS   UNIT 1015   STATUS:OLD                 
 FORMAT:FORMATTED              ACCESS:SEQUENTIAL          
 ACTION:READ                

 END OF SIMULATION SOLUTIONGROUP

 IMS -- ITERATIVE MODEL SOLUTION PACKAGE, VERSION 6, 4/28/2017
         INPUT READ FROM UNIT 1015
 # File generated by Flopy version 3.3.5 on 04/28/2022 at 15:58:30.

 PROCESSING IMS OPTIONS
 END OF IMS OPTIONS

 PROCESSING IMS NONLINEAR
 END OF IMS NONLINEAR DATA
 ***UNDER-RELAXATION WILL NOT BE USED***
 
 ***IMS LINEAR SOLVER WILL BE USED***

 IMSLINEAR -- UNSTRUCTURED LINEAR SOLUTION PACKAGE, VERSION 8, 04/28/2017

 PROCESSING LINEAR DATA
 END OF LINEAR DATA
 
 OUTER ITERATION CONVERGENCE CRITERION    (DVCLOSE) =    0.100000E-04
 MAXIMUM NUMBER OF OUTER ITERATIONS        (MXITER) = 100
 SOLVER PRINTOUT INDEX                     (IPRIMS) = 2
 NONLINEAR ITERATION METHOD            (NONLINMETH) = 0
 LINEAR SOLUTION METHOD                   (LINMETH) = 1

       SOLUTION BY THE        CONJUGATE-GRADIENT       METHOD
 ------------------------------------------------------------------
 MAXIMUM OF 100 CALLS OF SOLUTION ROUTINE
 MAXIMUM OF 50 INTERNAL ITERATIONS PER CALL TO SOLUTION ROUTINE
 LINEAR ACCELERATION METHOD            = CG        
 MATRIX PRECONDITIONING TYPE           = INCOMPLETE LU       
 MATRIX SCALING APPROACH               = NO SCALING          
 MATRIX REORDERING APPROACH            = ORIGINAL ORDERING        
 NUMBER OF ORTHOGONALIZATIONS          = 0
 HEAD CHANGE CRITERION FOR CLOSURE     =    0.10000E-05
 RESIDUAL CHANGE CRITERION FOR CLOSURE =    0.10000E-04
 RESIDUAL CONVERGENCE OPTION           = 1
 RESIDUAL CONVERGENCE NORM             = INFINITY NORM S 
 RELAXATION FACTOR                     =    0.00000E+00



 
    Solving:  Stress period:     1    Time step:     1
 
1
                            STRESS PERIOD NO. 1, LENGTH =   1.000000    
                            -----------------------------------------------
                            NUMBER OF TIME STEPS = 1
                            MULTIPLIER FOR DELT =     1.000
                            INITIAL TIME STEP SIZE =   1.000000    

 SLN_1 OUTER ITERATION SUMMARY
 ----------------------------------------------------------------------------------------------------------
                                OUTER      INNER                    STEP   MAXIMUM CHANGE MODEL-(CELLID) OR
 OUTER ITERATION STEP       ITERATION  ITERATION  MAXIMUM CHANGE SUCCESS             MODEL-PACKAGE-(NUMBER)
 ----------------------------------------------------------------------------------------------------------
 Model                              1         50       40.765941                            1_GWF-(1,26519)
 Model                              2         50      -35.856950                            1_GWF-(1,26519)
 Model                              3         50     -0.42187571                            1_GWF-(1,25161)
 Model                              4         50 -7.68772922E-02                            1_GWF-(1,11426)
 Model                              5         50 -5.36758200E-03                            1_GWF-(1,11933)
 Model                              6         50 -9.34886326E-04                            1_GWF-(1,21418)
 Model                              7         50  4.89460600E-05                            1_GWF-(1,21351)
 Model                              8          1 -8.61470792E-07       *                    1_GWF-(1,26588)
 ----------------------------------------------------------------------------------------------------------


 8 CALLS TO NUMERICAL SOLUTION IN TIME STEP 1 STRESS PERIOD 1
 351 TOTAL ITERATIONS

 SLN_1 INNER ITERATION SUMMARY
 --------------------------------------------------------------------------------------------------------------------------------------
      TOTAL      OUTER      INNER                                                            MAXIMUM                                   
  ITERATION  ITERATION  ITERATION  MAXIMUM CHANGE      MAXIMUM CHANGE MODEL-(CELLID)        RESIDUAL    MAXIMUM RESIDUAL MODEL-(CELLID)
 --------------------------------------------------------------------------------------------------------------------------------------
          1          1          1      -11.826368                    1_GWF-(1,12785)      0.66548632                    1_GWF-(1,11179)
          2          1          2       7.9447311                    1_GWF-(1,26564)     -0.36506551                    1_GWF-(1,11175)
          3          1          3       8.5766468                    1_GWF-(1,26565)     -0.32873738                    1_GWF-(1,11178)
          4          1          4       8.3043657                    1_GWF-(1,26564)      0.32042180                    1_GWF-(1,11180)
          5          1          5       8.5236321                    1_GWF-(1,26611)      0.29277083                    1_GWF-(1,11157)
          6          1          6       9.1726470                    1_GWF-(1,26649)      0.22657965                    1_GWF-(1,11158)
          7          1          7       9.2663295                    1_GWF-(1,26622)     -0.25593435                    1_GWF-(1,11208)
          8          1          8       7.3863228                    1_GWF-(1,26665)      0.14849089                    1_GWF-(1,10961)
          9          1          9      -5.6534575                    1_GWF-(1,26665)      0.14956086                    1_GWF-(1,11158)
         10          1         10      -5.6469567                    1_GWF-(1,26666)      0.15471781                    1_GWF-(1,11207)
         11          1         11      -5.3212808                    1_GWF-(1,26665)     -0.14478806                    1_GWF-(1,11207)
         12          1         12      -5.1259093                    1_GWF-(1,26622)      0.10887342                    1_GWF-(1,11059)
         13          1         13      -6.0525018                    1_GWF-(1,26649)  9.18877815E-02                    1_GWF-(1,11052)
         14          1         14      -4.9453316                    1_GWF-(1,26622)  8.46473148E-02                    1_GWF-(1,11050)
         15          1         15      -3.9574112                    1_GWF-(1,26623)  8.26136665E-02                    1_GWF-(1,11017)
         16          1         16      -3.0993778                    1_GWF-(1,26622)  8.16722192E-02                    1_GWF-(1,11058)
         17          1         17      -3.6442863                    1_GWF-(1,26588)      0.10942612                    1_GWF-(1,10873)
         18          1         18      -4.7262555                    1_GWF-(1,26543)     -0.10113833                    1_GWF-(1,11152)
         19          1         19      -6.1816203                    1_GWF-(1,26588)  8.44517533E-02                    1_GWF-(1,11194)
         20          1         20      -4.9844264                    1_GWF-(1,26543)  8.73470635E-02                    1_GWF-(1,11151)
         21          1         21      -3.5633671                    1_GWF-(1,26544) -8.21577284E-02                    1_GWF-(1,11152)
         22          1         22      -3.8530859                    1_GWF-(1,26486) -8.98400169E-02                    1_GWF-(1,11151)
         23          1         23      -3.7183116                    1_GWF-(1,26487)  7.66209143E-02                    1_GWF-(1,11151)
         24          1         24       3.5904986                    1_GWF-(1,26487)  6.64638535E-02                    1_GWF-(1,11108)
         25          1         25       4.6882711                    1_GWF-(1,26420) -6.73732569E-02                    1_GWF-(1,11151)
         26          1         26       4.8777616                    1_GWF-(1,26487) -7.92292081E-02                    1_GWF-(1,11108)
         27          1         27       4.0629235                    1_GWF-(1,26420)  6.51727869E-02                    1_GWF-(1,11108)
         28          1         28       2.9362576                    1_GWF-(1,26487) -5.83821091E-02                    1_GWF-(1,11149)
         29          1         29       2.2119107                    1_GWF-(1,26542) -5.65029248E-02                    1_GWF-(1,11150)
         30          1         30       1.8439828                    1_GWF-(1,26623) -5.82311568E-02                    1_GWF-(1,11063)
         31          1         31       1.9825501                    1_GWF-(1,26586)  4.98656977E-02                    1_GWF-(1,11158)
         32          1         32       1.7427909                    1_GWF-(1,26422) -4.78091585E-02                    1_GWF-(1,11053)
         33          1         33      -1.9699865                    1_GWF-(1,26422) -5.13423133E-02                    1_GWF-(1,11155)
         34          1         34      -2.0288448                    1_GWF-(1,26350) -4.53873761E-02                    1_GWF-(1,11154)
         35          1         35      -2.0756989                    1_GWF-(1,26422)  4.87318339E-02                    1_GWF-(1,11154)
         36          1         36      -1.8893178                    1_GWF-(1,26350) -4.92259357E-02                    1_GWF-(1,11153)
         37          1         37      -1.7033995                    1_GWF-(1,26422)  4.84065263E-02                    1_GWF-(1,11064)
         38          1         38      -1.5706860                    1_GWF-(1,26648)  5.60218303E-02                    1_GWF-(1,11063)
         39          1         39      -1.4988944                    1_GWF-(1,26649)  4.28770330E-02                    1_GWF-(1,11150)
         40          1         40      -1.4795969                    1_GWF-(1,26623)  3.28538534E-02                    1_GWF-(1,11110)
         41          1         41      -1.2955043                    1_GWF-(1,26649) -3.44863988E-02                    1_GWF-(1,11150)
         42          1         42      -1.1560368                    1_GWF-(1,26623)  3.83866600E-02                    1_GWF-(1,11150)
         43          1         43     -0.95554786                    1_GWF-(1,21484) -3.97148323E-02                    1_GWF-(1,11151)
         44          1         44     -0.94905581                    1_GWF-(1,21412) -4.16425404E-02                    1_GWF-(1,11108)
         45          1         45      -1.2206106                    1_GWF-(1,21259) -2.98123941E-02                    1_GWF-(1,11061)
         46          1         46      -1.1544293                    1_GWF-(1,20925)  2.85952805E-02                    1_GWF-(1,14801)
         47          1         47      -1.2137571                    1_GWF-(1,20919) -3.67692867E-02                    1_GWF-(1,14801)
         48          1         48     -0.90764853                    1_GWF-(1,20918)  4.72908456E-02                    1_GWF-(1,14801)
         49          1         49     -0.68387101                    1_GWF-(1,26217) -4.94754432E-02                    1_GWF-(1,14801)
         50          1         50     -0.62648285                    1_GWF-(1,26218)  6.79163138E-02                    1_GWF-(1,14801)
         51          2          1      -36.875796                    1_GWF-(1,26519)     -0.16411613                    1_GWF-(1,26519)
         52          2          2      -13.745727                    1_GWF-(1,26607) -6.29097580E-02                    1_GWF-(1,26516)
         53          2          3      -7.1133452                    1_GWF-(1,26637)  4.23392743E-02                    1_GWF-(1,26516)
         54          2          4      -7.0083653                    1_GWF-(1,26665)  4.29447620E-02                    1_GWF-(1,14801)
         55          2          5      -4.5532129                    1_GWF-(1,26649) -4.01340818E-02                    1_GWF-(1,14801)
         56          2          6      -3.4625270                    1_GWF-(1,26589)  5.55570716E-02                    1_GWF-(1,14801)
         57          2          7      -2.9517717                    1_GWF-(1,26543) -6.05633977E-02                    1_GWF-(1,14801)
         58          2          8      -2.5922837                    1_GWF-(1,26544)  9.62125766E-02                    1_GWF-(1,14801)
         59          2          9      -1.8866878                    1_GWF-(1,26487) -8.11344340E-02                    1_GWF-(1,14801)
         60          2         10      -1.5624946                    1_GWF-(1,26421)  7.62091352E-02                    1_GWF-(1,14801)
         61          2         11      -1.4592507                    1_GWF-(1,26422)  1.41917034E-02                    1_GWF-(1,14800)
         62          2         12      -1.1620246                    1_GWF-(1,26217)  2.94030726E-02                    1_GWF-(1,14800)
         63          2         13     -0.89609618                    1_GWF-(1,26218)  5.66163820E-02                    1_GWF-(1,14801)
         64          2         14     -0.56514348                    1_GWF-(1,26649)  5.53519871E-02                    1_GWF-(1,14800)
         65          2         15     -0.61777024                    1_GWF-(1,26622)  5.27589155E-02                    1_GWF-(1,14801)
         66          2         16     -0.79721569                    1_GWF-(1,25775)  1.46279921E-02                    1_GWF-(1,14801)
         67          2         17     -0.87131865                    1_GWF-(1,25758)  5.63395097E-02                    1_GWF-(1,14800)
         68          2         18      0.88107239                    1_GWF-(1,26217)  7.91927892E-02                    1_GWF-(1,14801)
         69          2         19      0.65791379                    1_GWF-(1,26218)  5.93366636E-02                    1_GWF-(1,14800)
         70          2         20      0.46708830                    1_GWF-(1,26543)  4.67224397E-02                    1_GWF-(1,14801)
         71          2         21      0.69120429                    1_GWF-(1,26588)  9.66130936E-03                    1_GWF-(1,14801)
         72          2         22      0.72816508                    1_GWF-(1,26543)  4.18392698E-02                    1_GWF-(1,14800)
         73          2         23      0.44301769                    1_GWF-(1,26544)  7.40327744E-02                    1_GWF-(1,14801)
         74          2         24     -0.49899528                    1_GWF-(1,26422)  6.67856159E-02                    1_GWF-(1,14800)
         75          2         25     -0.68746778                    1_GWF-(1,26486)  5.79400446E-02                    1_GWF-(1,14801)
         76          2         26     -0.73980942                    1_GWF-(1,26487)  1.16052078E-02                    1_GWF-(1,14800)
         77          2         27     -0.49109542                    1_GWF-(1,26420)  3.58234032E-02                    1_GWF-(1,14800)
         78          2         28     -0.25914912                    1_GWF-(1,26543)  6.38557901E-02                    1_GWF-(1,14801)
         79          2         29      0.27465351                    1_GWF-(1,26487)  6.36768338E-02                    1_GWF-(1,14800)
         80          2         30      0.28424129                    1_GWF-(1,26420)  8.70275173E-02                    1_GWF-(1,14801)
         81          2         31      0.23752332                    1_GWF-(1,25268) -8.16750774E-02                    1_GWF-(1,14801)
         82          2         32      0.24102180                    1_GWF-(1,26218)  9.27944642E-02                    1_GWF-(1,14801)
         83          2         33      0.26049931                    1_GWF-(1,26217) -6.65600222E-02                    1_GWF-(1,14801)
         84          2         34     -0.20328971                    1_GWF-(1,26217)  5.30214438E-02                    1_GWF-(1,14801)
         85          2         35      0.19012661                    1_GWF-(1,26422)  3.36651977E-02                    1_GWF-(1,14800)
         86          2         36      0.18498398                    1_GWF-(1,26218)  2.82023101E-02                    1_GWF-(1,14801)
         87          2         37     -0.20478684                    1_GWF-(1,21290)  1.78950901E-02                    1_GWF-(1,14800)
         88          2         38     -0.20775273                    1_GWF-(1,21282)  1.47527708E-02                    1_GWF-(1,14801)
         89          2         39     -0.19374955                    1_GWF-(1,20937)  7.87097898E-03                    1_GWF-(1,14800)
         90          2         40     -0.19061756                    1_GWF-(1,20915)  4.81342695E-03                    1_GWF-(1,14801)
         91          2         41     -0.15375166                    1_GWF-(1,25494)  7.94780035E-03                    1_GWF-(1,14801)
         92          2         42      0.16094249                    1_GWF-(1,21364)  1.02903045E-02                    1_GWF-(1,14800)
         93          2         43     -0.19343219                    1_GWF-(1,26350)  1.39550019E-02                    1_GWF-(1,14801)
         94          2         44      0.20938222                    1_GWF-(1,21283)  1.33642282E-02                    1_GWF-(1,14800)
         95          2         45      0.19986168                    1_GWF-(1,21265)  1.62259980E-02                    1_GWF-(1,14801)
         96          2         46      0.17814302                    1_GWF-(1,20917)  1.23954662E-02                    1_GWF-(1,14800)
         97          2         47      0.13625534                    1_GWF-(1,20232)  1.12217051E-02                    1_GWF-(1,14801)
         98          2         48 -9.24004698E-02                    1_GWF-(1,26422)  7.34141171E-03                    1_GWF-(1,14800)
         99          2         49 -8.62667637E-02                    1_GWF-(1,26586)  7.01591506E-03                    1_GWF-(1,14801)
        100          2         50 -7.19052086E-02                    1_GWF-(1,20584)  5.05647520E-03                    1_GWF-(1,15939)
        101          3          1     -0.12233786                    1_GWF-(1,11442) -6.69245882E-03                    1_GWF-(1,11378)
        102          3          2     -0.14204771                    1_GWF-(1,26082)  6.08969384E-03                    1_GWF-(1,14800)
        103          3          3     -0.10696054                    1_GWF-(1,26079)  7.99438293E-03                    1_GWF-(1,14801)
        104          3          4 -8.19914662E-02                    1_GWF-(1,26085)  6.29494908E-03                    1_GWF-(1,14800)
        105          3          5 -8.40079419E-02                    1_GWF-(1,25572)  8.09182037E-03                    1_GWF-(1,14801)
        106          3          6 -7.50092527E-02                    1_GWF-(1,25582)  7.39921384E-03                    1_GWF-(1,14800)
        107          3          7 -6.98444103E-02                    1_GWF-(1,25580)  7.20958594E-03                    1_GWF-(1,14801)
        108          3          8 -7.11865325E-02                    1_GWF-(1,26422)  5.34217768E-03                    1_GWF-(1,14800)
        109          3          9 -7.69134631E-02                    1_GWF-(1,26350)  6.09627478E-03                    1_GWF-(1,14801)
        110          3         10 -6.77141255E-02                    1_GWF-(1,25721)  4.01656665E-03                    1_GWF-(1,14800)
        111          3         11 -7.21322403E-02                    1_GWF-(1,24873)  3.33653468E-03                    1_GWF-(1,15939)
        112          3         12 -6.33017383E-02                    1_GWF-(1,26422) -2.91800989E-03                    1_GWF-(1,15939)
        113          3         13 -4.81678211E-02                    1_GWF-(1,24901)  1.76851470E-03                    1_GWF-(1,15939)
        114          3         14 -5.27045411E-02                    1_GWF-(1,25416)  2.21932017E-03                    1_GWF-(1,14801)
        115          3         15 -5.05403507E-02                    1_GWF-(1,22570)  2.63766714E-03                    1_GWF-(1,14800)
        116          3         16 -4.53766080E-02                    1_GWF-(1,22559)  4.23438138E-03                    1_GWF-(1,14801)
        117          3         17 -4.54090942E-02                    1_GWF-(1,22535)  4.58763757E-03                    1_GWF-(1,14800)
        118          3         18 -4.23303240E-02                    1_GWF-(1,22524)  6.57968979E-03                    1_GWF-(1,14801)
        119          3         19 -3.91357431E-02                    1_GWF-(1,22311) -7.26465824E-03                    1_GWF-(1,14801)
        120          3         20 -4.21601153E-02                    1_GWF-(1,21263)  1.00273761E-02                    1_GWF-(1,14801)
        121          3         21 -5.09079488E-02                    1_GWF-(1,21263) -9.76688557E-03                    1_GWF-(1,14801)
        122          3         22 -4.86008765E-02                    1_GWF-(1,20230)  1.26073366E-02                    1_GWF-(1,14801)
        123          3         23 -4.72866863E-02                    1_GWF-(1,20222) -1.30129372E-02                    1_GWF-(1,14801)
        124          3         24  4.99836116E-02                    1_GWF-(1,26588)  1.26200425E-02                    1_GWF-(1,14801)
        125          3         25  5.94528709E-02                    1_GWF-(1,26487)  4.74214414E-03                    1_GWF-(1,14800)
        126          3         26  6.03093241E-02                    1_GWF-(1,26420)  3.40325223E-03                    1_GWF-(1,14800)
        127          3         27  4.64308939E-02                    1_GWF-(1,26487)  8.96143206E-03                    1_GWF-(1,14801)
        128          3         28 -3.35263962E-02                    1_GWF-(1,26487) -1.05182848E-02                    1_GWF-(1,14801)
        129          3         29 -4.00249899E-02                    1_GWF-(1,26486)  9.14269790E-03                    1_GWF-(1,14801)
        130          3         30 -3.91543972E-02                    1_GWF-(1,26622)  3.34166824E-03                    1_GWF-(1,14800)
        131          3         31 -4.29102384E-02                    1_GWF-(1,26649)  1.86827744E-03                    1_GWF-(1,14800)
        132          3         32 -4.35198606E-02                    1_GWF-(1,26622)  6.38182069E-03                    1_GWF-(1,14801)
        133          3         33 -3.34769139E-02                    1_GWF-(1,26649) -7.73789617E-03                    1_GWF-(1,14801)
        134          3         34  3.17020707E-02                    1_GWF-(1,26649)  7.75031323E-03                    1_GWF-(1,14801)
        135          3         35 -3.30765792E-02                    1_GWF-(1,26665) -3.09133973E-03                    1_GWF-(1,14801)
        136          3         36  4.60156881E-02                    1_GWF-(1,26665) -8.81176552E-04                    1_GWF-(1,15942)
        137          3         37  4.18377501E-02                    1_GWF-(1,26666)  2.77764668E-03                    1_GWF-(1,14801)
        138          3         38  3.03430589E-02                    1_GWF-(1,26665) -4.20757587E-03                    1_GWF-(1,14801)
        139          3         39 -2.69099800E-02                    1_GWF-(1,26665)  3.51975829E-03                    1_GWF-(1,14801)
        140          3         40  2.19131819E-02                    1_GWF-(1,26421) -2.80789468E-03                    1_GWF-(1,14801)
        141          3         41  2.32222392E-02                    1_GWF-(1,26486) -1.09179406E-03                    1_GWF-(1,14800)
        142          3         42  2.60418795E-02                    1_GWF-(1,26544) -5.19608089E-04                    1_GWF-(1,14800)
        143          3         43  2.74222274E-02                    1_GWF-(1,26543) -1.90637052E-03                    1_GWF-(1,14801)
        144          3         44  2.70059928E-02                    1_GWF-(1,26588) -1.73889044E-03                    1_GWF-(1,14800)
        145          3         45  1.90699897E-02                    1_GWF-(1,26622) -1.71083822E-03                    1_GWF-(1,14801)
        146          3         46  1.67241013E-02                    1_GWF-(1,26649) -1.16296602E-03                    1_GWF-(1,14800)
        147          3         47 -1.22951751E-02                    1_GWF-(1,21271)  1.10330749E-03                    1_GWF-(1,15939)
        148          3         48 -1.25105117E-02                    1_GWF-(1,26543) -7.72742879E-04                    1_GWF-(1,15939)
        149          3         49 -1.56263147E-02                    1_GWF-(1,26649)  5.20226404E-04                    1_GWF-(1,15939)
        150          3         50 -1.19072222E-02                    1_GWF-(1,26623) -4.44072568E-04                    1_GWF-(1,14799)
        151          4          1 -4.68553076E-02                    1_GWF-(1,10745) -5.36629858E-04                    1_GWF-(1,10745)
        152          4          2 -2.91954726E-02                    1_GWF-(1,11421) -4.65388130E-04                    1_GWF-(1,15063)
        153          4          3 -1.79264859E-02                    1_GWF-(1,11422)  4.05021374E-04                    1_GWF-(1,15939)
        154          4          4 -1.27229297E-02                    1_GWF-(1,11412) -3.94638604E-04                    1_GWF-(1,14799)
        155          4          5 -9.76890652E-03                    1_GWF-(1,11414) -4.52630988E-04                    1_GWF-(1,14801)
        156          4          6 -6.61479728E-03                    1_GWF-(1,11407) -4.61754318E-04                    1_GWF-(1,14800)
        157          4          7 -5.82475540E-03                    1_GWF-(1,26217) -5.81027390E-04                    1_GWF-(1,14801)
        158          4          8  6.07185130E-03                    1_GWF-(1,11450)  5.63483720E-04                    1_GWF-(1,14801)
        159          4          9  5.95700073E-03                    1_GWF-(1,11368)  4.22809225E-04                    1_GWF-(1,14800)
        160          4         10 -5.73251826E-03                    1_GWF-(1,26486)  3.04567253E-04                    1_GWF-(1,14799)
        161          4         11 -4.93003212E-03                    1_GWF-(1,26588)  6.12080957E-04                    1_GWF-(1,14801)
        162          4         12 -4.81957762E-03                    1_GWF-(1,11466)  5.71692781E-04                    1_GWF-(1,14800)
        163          4         13 -4.14836917E-03                    1_GWF-(1,15161) -5.68456491E-04                    1_GWF-(1,14800)
        164          4         14  4.07426824E-03                    1_GWF-(1,26665) -7.13844684E-04                    1_GWF-(1,14801)
        165          4         15 -4.90320581E-03                    1_GWF-(1,26665) -3.89785929E-04                    1_GWF-(1,14800)
        166          4         16  5.73392009E-03                    1_GWF-(1,26665) -1.33519886E-04                    1_GWF-(1,14801)
        167          4         17 -5.15756008E-03                    1_GWF-(1,26665)  2.27512253E-04                    1_GWF-(1,14799)
        168          4         18  4.40087676E-03                    1_GWF-(1,26665)  4.94049758E-04                    1_GWF-(1,14801)
        169          4         19 -3.46649979E-03                    1_GWF-(1,24316) -6.21000498E-04                    1_GWF-(1,14801)
        170          4         20  3.47964340E-03                    1_GWF-(1,26649)  6.20938502E-04                    1_GWF-(1,14801)
        171          4         21  3.93736528E-03                    1_GWF-(1,26622)  2.58876851E-04                    1_GWF-(1,14800)
        172          4         22 -3.97196790E-03                    1_GWF-(1,26622)  1.54319161E-04                    1_GWF-(1,14799)
        173          4         23 -2.97958410E-03                    1_GWF-(1,26649)  4.94121659E-04                    1_GWF-(1,14801)
        174          4         24 -3.15869616E-03                    1_GWF-(1,26487)  6.23202261E-04                    1_GWF-(1,14800)
        175          4         25 -3.37067997E-03                    1_GWF-(1,26486)  6.80152126E-04                    1_GWF-(1,14801)
        176          4         26 -3.95076662E-03                    1_GWF-(1,26487) -3.20160156E-04                    1_GWF-(1,14801)
        177          4         27 -3.69881001E-03                    1_GWF-(1,26588)  9.69536737E-05                    1_GWF-(1,14800)
        178          4         28 -2.68834127E-03                    1_GWF-(1,26487)  4.99403409E-04                    1_GWF-(1,14801)
        179          4         29 -1.84618501E-03                    1_GWF-(1,26420) -5.63403409E-04                    1_GWF-(1,14801)
        180          4         30 -1.27632340E-03                    1_GWF-(1,21496)  7.52524776E-04                    1_GWF-(1,14801)
        181          4         31  1.13456363E-03                    1_GWF-(1,20871)  6.84972938E-04                    1_GWF-(1,14800)
        182          4         32  1.11963076E-03                    1_GWF-(1,20946)  7.87759107E-04                    1_GWF-(1,14801)
        183          4         33  1.11062495E-03                    1_GWF-(1,26422) -5.23941955E-04                    1_GWF-(1,14801)
        184          4         34 -1.09902225E-03                    1_GWF-(1,11454)  4.22034207E-04                    1_GWF-(1,14801)
        185          4         35  1.13464493E-03                    1_GWF-(1,26422)  3.09810366E-04                    1_GWF-(1,14800)
        186          4         36  1.11030819E-03                    1_GWF-(1,26218)  2.87267748E-04                    1_GWF-(1,14801)
        187          4         37  8.00436266E-04                    1_GWF-(1,26422)  1.53438526E-04                    1_GWF-(1,14800)
        188          4         38 -8.37575169E-04                    1_GWF-(1,20999)  1.60527506E-04                    1_GWF-(1,14801)
        189          4         39 -8.49654376E-04                    1_GWF-(1,21182)  1.28754770E-04                    1_GWF-(1,15939)
        190          4         40 -7.67648562E-04                    1_GWF-(1,15164)  1.05215672E-04                    1_GWF-(1,14799)
        191          4         41 -8.39274413E-04                    1_GWF-(1,26350) -7.92248220E-05                    1_GWF-(1,15854)
        192          4         42 -1.09095924E-03                    1_GWF-(1,26422) -8.17208648E-05                    1_GWF-(1,15939)
        193          4         43 -1.19039245E-03                    1_GWF-(1,26350)  7.75597749E-05                    1_GWF-(1,14801)
        194          4         44 -1.29953499E-03                    1_GWF-(1,26422)  7.85446891E-05                    1_GWF-(1,14799)
        195          4         45 -1.27123795E-03                    1_GWF-(1,26350)  1.28956083E-04                    1_GWF-(1,14801)
        196          4         46 -1.31958775E-03                    1_GWF-(1,26422)  1.05402513E-04                    1_GWF-(1,14800)
        197          4         47 -1.07618391E-03                    1_GWF-(1,26350)  9.07242437E-05                    1_GWF-(1,14801)
        198          4         48 -7.97226809E-04                    1_GWF-(1,26422)  7.65682833E-05                    1_GWF-(1,14800)
        199          4         49  6.64726316E-04                    1_GWF-(1,26422)  9.31883322E-05                    1_GWF-(1,14801)
        200          4         50  5.08663544E-04                    1_GWF-(1,26350)  5.62702393E-05                    1_GWF-(1,14798)
        201          5          1 -5.01547360E-03                    1_GWF-(1,11933)  3.96987315E-05                    1_GWF-(1,14801)
        202          5          2 -1.67389124E-03                    1_GWF-(1,11934)  4.21026692E-05                    1_GWF-(1,14800)
        203          5          3 -9.39186374E-04                    1_GWF-(1,11924)  5.90328679E-05                    1_GWF-(1,14801)
        204          5          4 -7.29497909E-04                    1_GWF-(1,11926)  6.28444042E-05                    1_GWF-(1,14800)
        205          5          5  7.82971107E-04                    1_GWF-(1,26422)  9.51742059E-05                    1_GWF-(1,14801)
        206          5          6  8.22670350E-04                    1_GWF-(1,26350)  7.52614932E-05                    1_GWF-(1,14800)
        207          5          7  8.56078029E-04                    1_GWF-(1,26422)  7.60085286E-05                    1_GWF-(1,14801)
        208          5          8  7.78962547E-04                    1_GWF-(1,11998)  5.70722445E-05                    1_GWF-(1,14800)
        209          5          9  8.35174105E-04                    1_GWF-(1,11988)  5.36645808E-05                    1_GWF-(1,14801)
        210          5         10  7.42875956E-04                    1_GWF-(1,11984)  5.36343816E-05                    1_GWF-(1,14799)
        211          5         11  6.53388427E-04                    1_GWF-(1,11897)  4.52666489E-05                    1_GWF-(1,15939)
        212          5         12 -7.43109506E-04                    1_GWF-(1,26649)  3.92494116E-05                    1_GWF-(1,14801)
        213          5         13 -6.97912157E-04                    1_GWF-(1,26622)  3.17525556E-05                    1_GWF-(1,14800)
        214          5         14 -5.67416379E-04                    1_GWF-(1,26623)  3.95478549E-05                    1_GWF-(1,15939)
        215          5         15 -5.64430520E-04                    1_GWF-(1,26486)  5.35326950E-05                    1_GWF-(1,14799)
        216          5         16 -3.97085983E-04                    1_GWF-(1,26544)  3.61781297E-05                    1_GWF-(1,15939)
        217          5         17 -4.02810636E-04                    1_GWF-(1,12086)  5.01517609E-05                    1_GWF-(1,14799)
        218          5         18 -3.97775908E-04                    1_GWF-(1,12055)  3.52441915E-05                    1_GWF-(1,14798)
        219          5         19 -3.68396718E-04                    1_GWF-(1,26486)  5.79738102E-05                    1_GWF-(1,14801)
        220          5         20  4.57043764E-04                    1_GWF-(1,26486)  4.56942784E-05                    1_GWF-(1,14800)
        221          5         21  6.08848198E-04                    1_GWF-(1,26487)  3.04291311E-05                    1_GWF-(1,14801)
        222          5         22  5.38546727E-04                    1_GWF-(1,26486)  3.69520316E-05                    1_GWF-(1,14799)
        223          5         23  4.15706331E-04                    1_GWF-(1,26487)  4.46873312E-05                    1_GWF-(1,14800)
        224          5         24 -4.69452430E-04                     1_GWF-(1,8052)  6.98214928E-05                    1_GWF-(1,14801)
        225          5         25 -4.74125626E-04                     1_GWF-(1,8083) -8.71390270E-05                    1_GWF-(1,14801)
        226          5         26 -4.00811508E-04                     1_GWF-(1,8092)  1.10799427E-04                    1_GWF-(1,14801)
        227          5         27 -3.66260560E-04                     1_GWF-(1,8186) -1.05697791E-04                    1_GWF-(1,14801)
        228          5         28  4.08199617E-04                     1_GWF-(1,3437)  1.23639821E-04                    1_GWF-(1,14801)
        229          5         29  4.90691505E-04                     1_GWF-(1,8052) -1.12984991E-04                    1_GWF-(1,14801)
        230          5         30  4.73329749E-04                     1_GWF-(1,8082)  8.07572529E-05                    1_GWF-(1,14801)
        231          5         31  4.39060154E-04                     1_GWF-(1,8090) -3.57888577E-05                    1_GWF-(1,14801)
        232          5         32 -3.96774857E-04                    1_GWF-(1,26588) -2.41802196E-05                    1_GWF-(1,14801)
        233          5         33 -3.43997199E-04                    1_GWF-(1,26543)  6.50862082E-05                    1_GWF-(1,14801)
        234          5         34 -3.21521723E-04                    1_GWF-(1,26588) -9.10327129E-05                    1_GWF-(1,14801)
        235          5         35 -2.17241571E-04                    1_GWF-(1,26543)  7.58407600E-05                    1_GWF-(1,14801)
        236          5         36 -2.35962010E-04                     1_GWF-(1,8021) -7.05842286E-05                    1_GWF-(1,14801)
        237          5         37 -2.63957483E-04                     1_GWF-(1,8188) -4.60983762E-05                    1_GWF-(1,14800)
        238          5         38 -2.39995729E-04                     1_GWF-(1,8214) -3.23909788E-05                    1_GWF-(1,14801)
        239          5         39 -1.87760359E-04                     1_GWF-(1,8205) -1.46592223E-05                    1_GWF-(1,14799)
        240          5         40 -1.98896338E-04                    1_GWF-(1,26665)  1.46626657E-05                    1_GWF-(1,14801)
        241          5         41  1.97094607E-04                    1_GWF-(1,26665) -2.52141823E-05                    1_GWF-(1,14801)
        242          5         42  1.65973061E-04                    1_GWF-(1,26663)  3.79944869E-05                    1_GWF-(1,14801)
        243          5         43  1.80959961E-04                     1_GWF-(1,8224) -2.77304896E-05                    1_GWF-(1,14801)
        244          5         44  1.61969913E-04                     1_GWF-(1,8450)  2.09214667E-05                    1_GWF-(1,14801)
        245          5         45  1.19394330E-04                     1_GWF-(1,8476) -1.64325224E-05                    1_GWF-(1,14801)
        246          5         46  1.29393796E-04                     1_GWF-(1,8085) -1.72451123E-05                    1_GWF-(1,14799)
        247          5         47 -9.64712828E-05                     1_GWF-(1,8225)  1.71902230E-05                    1_GWF-(1,14799)
        248          5         48 -1.11823221E-04                     1_GWF-(1,8456) -1.92744213E-05                    1_GWF-(1,14799)
        249          5         49 -1.22232578E-04                     1_GWF-(1,8483)  1.93685673E-05                    1_GWF-(1,14799)
        250          5         50 -1.25758578E-04                     1_GWF-(1,8570) -2.44586448E-05                    1_GWF-(1,14799)
        251          6          1 -7.19333658E-05                    1_GWF-(1,10745)  2.26434948E-05                    1_GWF-(1,14799)
        252          6          2 -1.04874703E-04                    1_GWF-(1,11421) -2.18517612E-05                    1_GWF-(1,14799)
        253          6          3 -7.11345513E-05                    1_GWF-(1,11422)  1.88693582E-05                    1_GWF-(1,14799)
        254          6          4 -8.42113443E-05                    1_GWF-(1,26622) -1.27152790E-05                    1_GWF-(1,14799)
        255          6          5 -8.90582126E-05                     1_GWF-(1,8094)  1.73288001E-06                    1_GWF-(1,14800)
        256          6          6 -7.83621456E-05                    1_GWF-(1,26622)  1.11189798E-05                    1_GWF-(1,14799)
        257          6          7 -6.35311261E-05                    1_GWF-(1,21260) -1.55195371E-05                    1_GWF-(1,14799)
        258          6          8 -7.00002722E-05                     1_GWF-(1,8234)  1.86997889E-05                    1_GWF-(1,14799)
        259          6          9 -6.31853640E-05                    1_GWF-(1,20979) -1.73043472E-05                    1_GWF-(1,14799)
        260          6         10 -5.60912156E-05                    1_GWF-(1,20951)  1.77756389E-05                    1_GWF-(1,14799)
        261          6         11 -4.68762739E-05                    1_GWF-(1,20951) -1.19812938E-05                    1_GWF-(1,14799)
        262          6         12  5.08080051E-05                     1_GWF-(1,8226) -9.14475381E-06                    1_GWF-(1,14801)
        263          6         13  5.96852401E-05                     1_GWF-(1,8214) -8.10440212E-06                    1_GWF-(1,14800)
        264          6         14  5.87255806E-05                    1_GWF-(1,26665) -6.96998863E-06                    1_GWF-(1,14801)
        265          6         15 -6.36834449E-05                    1_GWF-(1,26665)  6.59252929E-06                    1_GWF-(1,14799)
        266          6         16  5.56744626E-05                    1_GWF-(1,26665) -9.93246099E-06                    1_GWF-(1,14799)
        267          6         17 -5.08777720E-05                     1_GWF-(1,8219)  9.14861976E-06                    1_GWF-(1,14799)
        268          6         18 -5.88992192E-05                     1_GWF-(1,8212)  1.07156483E-05                    1_GWF-(1,14801)
        269          6         19 -5.85327579E-05                     1_GWF-(1,8015) -8.73489466E-06                    1_GWF-(1,14801)
        270          6         20 -5.46390499E-05                     1_GWF-(1,8093)  5.45638650E-06                    1_GWF-(1,14801)
        271          6         21 -4.71032431E-05                    1_GWF-(1,26486) -4.47011926E-06                    1_GWF-(1,14799)
        272          6         22 -4.08102818E-05                    1_GWF-(1,26622) -8.06682214E-06                    1_GWF-(1,14801)
        273          6         23 -3.40781622E-05                    1_GWF-(1,21269)  1.26167757E-05                    1_GWF-(1,14801)
        274          6         24 -3.10978970E-05                    1_GWF-(1,21458) -1.30174809E-05                    1_GWF-(1,14801)
        275          6         25  3.83770767E-05                     1_GWF-(1,8090)  1.33132693E-05                    1_GWF-(1,14801)
        276          6         26  3.98040609E-05                     1_GWF-(1,8090) -1.09958520E-05                    1_GWF-(1,14801)
        277          6         27  3.36986674E-05                     1_GWF-(1,8064)  6.73470679E-06                    1_GWF-(1,14801)
        278          6         28 -3.11696944E-05                    1_GWF-(1,26588) -1.75741854E-06                    1_GWF-(1,14799)
        279          6         29  2.97771413E-05                    1_GWF-(1,26588)  4.11245799E-06                    1_GWF-(1,14800)
        280          6         30 -2.57011920E-05                    1_GWF-(1,26588)  7.60095149E-06                    1_GWF-(1,14801)
        281          6         31  1.87171734E-05                    1_GWF-(1,26588) -6.32242718E-06                    1_GWF-(1,14801)
        282          6         32 -1.61960382E-05                     1_GWF-(1,7972)  6.31111003E-06                    1_GWF-(1,14801)
        283          6         33 -1.51053216E-05                     1_GWF-(1,8178) -3.86454392E-06                    1_GWF-(1,14801)
        284          6         34 -1.37715849E-05                     1_GWF-(1,8087)  3.47272509E-06                    1_GWF-(1,14801)
        285          6         35  1.30872412E-05                     1_GWF-(1,3032)  2.24286982E-06                    1_GWF-(1,14800)
        286          6         36 -1.09058580E-05                    1_GWF-(1,12049)  2.81484605E-06                    1_GWF-(1,14799)
        287          6         37 -1.08683312E-05                     1_GWF-(1,7555)  2.05457201E-06                    1_GWF-(1,14798)
        288          6         38  1.16542555E-05                    1_GWF-(1,11990)  2.71753179E-06                    1_GWF-(1,14799)
        289          6         39  1.27091506E-05                     1_GWF-(1,8081)  1.86152092E-06                    1_GWF-(1,14798)
        290          6         40  1.54038426E-05                     1_GWF-(1,8068)  2.30101670E-06                    1_GWF-(1,14799)
        291          6         41  1.69243553E-05                    1_GWF-(1,26588)  8.86122029E-07                    1_GWF-(1,14798)
        292          6         42  1.66243953E-05                    1_GWF-(1,26622)  7.06204654E-07                    1_GWF-(1,14800)
        293          6         43  1.35522223E-05                    1_GWF-(1,26623)  1.73357736E-06                    1_GWF-(1,14799)
        294          6         44  1.26407379E-05                    1_GWF-(1,26486)  1.41409771E-06                    1_GWF-(1,14798)
        295          6         45 -1.14670632E-05                    1_GWF-(1,26486)  1.55895759E-06                    1_GWF-(1,14799)
        296          6         46  1.00167660E-05                    1_GWF-(1,26486)  1.13011756E-06                    1_GWF-(1,14801)
        297          6         47 -1.04329091E-05                    1_GWF-(1,26486)  9.25623477E-07                    1_GWF-(1,14800)
        298          6         48  9.93591446E-06                    1_GWF-(1,26422)  1.07963620E-06                    1_GWF-(1,14801)
        299          6         49  1.04560139E-05                    1_GWF-(1,11942)  9.70479008E-07                    1_GWF-(1,14800)
        300          6         50  1.36057794E-05                    1_GWF-(1,11934)  1.51712614E-06                    1_GWF-(1,14801)
        301          7          1 -1.51631977E-05                    1_GWF-(1,11934)  1.00538253E-06                    1_GWF-(1,14800)
        302          7          2 -9.85886902E-06                    1_GWF-(1,11942)  1.03102940E-06                    1_GWF-(1,14801)
        303          7          3  7.79774106E-06                    1_GWF-(1,26544)  7.60383025E-07                    1_GWF-(1,14800)
        304          7          4  1.12061039E-05                    1_GWF-(1,26486)  7.92547538E-07                    1_GWF-(1,14801)
        305          7          5 -1.12559900E-05                    1_GWF-(1,26486)  5.05766394E-07                    1_GWF-(1,14799)
        306          7          6  1.03139441E-05                    1_GWF-(1,26486)  5.21452482E-07                    1_GWF-(1,14798)
        307          7          7 -1.00929473E-05                    1_GWF-(1,26420)  8.93979060E-07                    1_GWF-(1,14801)
        308          7          8  1.01391859E-05                    1_GWF-(1,26420)  6.99396259E-07                    1_GWF-(1,14800)
        309          7          9 -9.05453648E-06                     1_GWF-(1,3616)  6.36602071E-07                    1_GWF-(1,14801)
        310          7         10 -1.08783346E-05                     1_GWF-(1,8064)  1.01717738E-06                    1_GWF-(1,14799)
        311          7         11 -9.24163724E-06                     1_GWF-(1,8091)  8.51654199E-07                    1_GWF-(1,14798)
        312          7         12 -8.35902989E-06                     1_GWF-(1,8180)  1.10976845E-06                    1_GWF-(1,14799)
        313          7         13  7.05805729E-06                    1_GWF-(1,26649)  6.73605960E-07                    1_GWF-(1,14798)
        314          7         14 -7.84782664E-06                    1_GWF-(1,26649)  4.91019856E-07                    1_GWF-(1,14801)
        315          7         15  7.55858021E-06                    1_GWF-(1,26649)  7.05969243E-07                    1_GWF-(1,14799)
        316          7         16  6.04113493E-06                    1_GWF-(1,26622) -7.83173847E-07                    1_GWF-(1,14799)
        317          7         17  5.19875071E-06                    1_GWF-(1,26623)  1.02011281E-06                    1_GWF-(1,14799)
        318          7         18 -6.87732236E-06                    1_GWF-(1,26588)  5.47286356E-07                    1_GWF-(1,14798)
        319          7         19  8.13650650E-06                    1_GWF-(1,26588)  4.44454853E-07                    1_GWF-(1,14801)
        320          7         20 -8.84244896E-06                    1_GWF-(1,26588)  7.12998502E-07                    1_GWF-(1,14799)
        321          7         21  7.28424754E-06                    1_GWF-(1,26588)  7.93765450E-07                    1_GWF-(1,14798)
        322          7         22  4.64204559E-06                    1_GWF-(1,26543)  1.18337015E-06                    1_GWF-(1,14799)
        323          7         23  4.25245733E-06                    1_GWF-(1,26588) -1.11384828E-06                    1_GWF-(1,14799)
        324          7         24 -6.23052635E-06                     1_GWF-(1,8098)  1.14713851E-06                    1_GWF-(1,14799)
        325          7         25 -6.98313343E-06                     1_GWF-(1,8087) -1.08893372E-06                    1_GWF-(1,14801)
        326          7         26 -5.07984812E-06                     1_GWF-(1,8092)  1.18594560E-06                    1_GWF-(1,14801)
        327          7         27  5.40599387E-06                    1_GWF-(1,26665)  7.36373110E-07                    1_GWF-(1,14800)
        328          7         28 -5.15610003E-06                    1_GWF-(1,26665)  3.54907950E-07                    1_GWF-(1,14801)
        329          7         29  4.97993298E-06                     1_GWF-(1,8060)  6.50201947E-07                    1_GWF-(1,14799)
        330          7         30  4.76921528E-06                     1_GWF-(1,7972) -6.86372825E-07                    1_GWF-(1,14799)
        331          7         31  4.23214279E-06                     1_GWF-(1,8021)  9.52399856E-07                    1_GWF-(1,14801)
        332          7         32  4.49310677E-06                     1_GWF-(1,8040) -1.10872813E-06                    1_GWF-(1,14801)
        333          7         33  3.64398938E-06                     1_GWF-(1,8048)  1.24740131E-06                    1_GWF-(1,14801)
        334          7         34 -2.90329948E-06                     1_GWF-(1,8061) -1.20936236E-06                    1_GWF-(1,14801)
        335          7         35 -2.40364516E-06                     1_GWF-(1,7981)  1.04516836E-06                    1_GWF-(1,14801)
        336          7         36  2.48209374E-06                     1_GWF-(1,7942) -9.02546926E-07                    1_GWF-(1,14801)
        337          7         37 -2.98331185E-06                    1_GWF-(1,26487) -4.30417288E-07                    1_GWF-(1,14799)
        338          7         38 -3.60187538E-06                    1_GWF-(1,26486)  1.62990502E-07                    1_GWF-(1,14799)
        339          7         39 -3.22290442E-06                    1_GWF-(1,26487) -5.53595888E-07                    1_GWF-(1,14801)
        340          7         40 -2.54561617E-06                    1_GWF-(1,26486)  7.61702091E-07                    1_GWF-(1,14801)
        341          7         41  2.09226541E-06                     1_GWF-(1,8211) -6.40152834E-07                    1_GWF-(1,14801)
        342          7         42  2.31814760E-06                     1_GWF-(1,8221)  5.64129889E-07                    1_GWF-(1,14801)
        343          7         43  2.45500907E-06                     1_GWF-(1,8446)  4.49638936E-07                    1_GWF-(1,14799)
        344          7         44  1.98000291E-06                    1_GWF-(1,26649) -2.54324317E-07                    1_GWF-(1,14799)
        345          7         45  2.73150566E-06                    1_GWF-(1,26622)  9.80482269E-08                    1_GWF-(1,14801)
        346          7         46  2.73306502E-06                    1_GWF-(1,26649) -2.48543491E-07                    1_GWF-(1,14801)
        347          7         47  2.24704657E-06                    1_GWF-(1,26622) -3.22095793E-07                    1_GWF-(1,14799)
        348          7         48 -1.40137670E-06                     1_GWF-(1,8364)  3.36927000E-07                    1_GWF-(1,14799)
        349          7         49 -1.72307789E-06                     1_GWF-(1,8373) -3.49665295E-07                    1_GWF-(1,14799)
        350          7         50 -1.31650896E-06                     1_GWF-(1,8405)  2.72645383E-07                    1_GWF-(1,14799)
        351          8          1 -8.61470792E-07                    1_GWF-(1,26588) -4.71868444E-07                    1_GWF-(1,14799)
 --------------------------------------------------------------------------------------------------------------------------------------



 MEMORY MANAGER TOTAL STORAGE BY DATA TYPE, IN MEGABYTES
 -------------------------------
                    ALLOCATED   
 DATA TYPE           MEMORY     
 -------------------------------
 Character        4.66090000E-02
 Logical          4.40000000E-05
 Integer          5.2037920     
 Real             11.901376     
 -------------------------------
 Total            17.151821     
 -------------------------------


 
 Run end date and time (yyyy/mm/dd hh:mm:ss): 2022/04/29 15:36:41
 Elapsed run time:  0.501 Seconds
 Normal termination of simulation.
