                                   MODFLOW 6
                U.S. GEOLOGICAL SURVEY MODULAR HYDROLOGIC MODEL
                            VERSION 6.2.2 07/30/2021

   MODFLOW 6 compiled Jul 31 2021 14:22:53 with IFORT compiler (ver. 19.10.3)

This software has been approved for release by the U.S. Geological 
Survey (USGS). Although the software has been subjected to rigorous 
review, the USGS reserves the right to update the software as needed 
pursuant to further analysis and review. No warranty, expressed or 
implied, is made by the USGS or the U.S. Government as to the 
functionality of the software and related material nor shall the 
fact of release constitute any such warranty. Furthermore, the 
software is released on condition that neither the USGS nor the U.S. 
Government shall be held liable for any damages resulting from its 
authorized or unauthorized use. Also refer to the USGS Water 
Resources Software User Rights Notice for complete use, copyright, 
and distribution information.


System command used to initiate simulation:
mf6

MODFLOW was compiled using uniform precision.

Real Variables
  KIND: 8
  TINY (smallest non-zero value):    2.225074-308
  HUGE (largest value):    1.797693+308
  PRECISION: 15
  BIT SIZE: 64

Integer Variables
  KIND: 4
  HUGE (largest value): 2147483647
  BIT SIZE: 32

Long Integer Variables
  KIND: 8
  HUGE (largest value): 9223372036854775807
  BIT SIZE: 64

Logical Variables
  KIND: 4
  BIT SIZE: 32
 

 OPENED mfsim.nam
 FILE TYPE:NAM   UNIT 1001   STATUS:OLD                 
 FORMAT:FORMATTED              ACCESS:SEQUENTIAL          
 ACTION:READ                

 # File generated by Flopy version 3.3.5 on 04/28/2022 at 15:58:30.

 READING SIMULATION OPTIONS
 END OF SIMULATION OPTIONS

 READING SIMULATION TIMING

 OPENED mfsim.tdis
 FILE TYPE:TDIS   UNIT 1002   STATUS:OLD                 
 FORMAT:FORMATTED              ACCESS:SEQUENTIAL          
 ACTION:READ                


 TDIS -- TEMPORAL DISCRETIZATION PACKAGE,
 VERSION 1 : 11/13/2014 - INPUT READ FROM UNIT 1002
 # File generated by Flopy version 3.3.5 on 04/28/2022 at 15:58:30.
 PROCESSING TDIS OPTIONS
    SIMULATION TIME UNIT IS SECONDS
 END OF TDIS OPTIONS
 PROCESSING TDIS DIMENSIONS
    1 STRESS PERIOD(S) IN SIMULATION
 END OF TDIS DIMENSIONS
 PROCESSING TDIS PERIODDATA


 STRESS PERIOD     LENGTH       TIME STEPS     MULTIPLIER FOR DELT
 ----------------------------------------------------------------------------
        1         1.000000          1                    1.000
 END OF TDIS PERIODDATA
 END OF SIMULATION TIMING

 READING SIMULATION MODELS
    GWF6 model ML will be created as model 1
 END OF SIMULATION MODELS

 READING SIMULATION EXCHANGES
 END OF SIMULATION EXCHANGES

 READING SOLUTIONGROUP

 Creating solution: SLN_1           

 OPENED mfsim.ims
 FILE TYPE:IMS   UNIT 1015   STATUS:OLD                 
 FORMAT:FORMATTED              ACCESS:SEQUENTIAL          
 ACTION:READ                

 END OF SIMULATION SOLUTIONGROUP

 IMS -- ITERATIVE MODEL SOLUTION PACKAGE, VERSION 6, 4/28/2017
         INPUT READ FROM UNIT 1015
 # File generated by Flopy version 3.3.5 on 04/28/2022 at 15:58:30.

 PROCESSING IMS OPTIONS
 END OF IMS OPTIONS

 PROCESSING IMS NONLINEAR
 END OF IMS NONLINEAR DATA
 ***UNDER-RELAXATION WILL NOT BE USED***
 
 ***IMS LINEAR SOLVER WILL BE USED***

 IMSLINEAR -- UNSTRUCTURED LINEAR SOLUTION PACKAGE, VERSION 8, 04/28/2017

 PROCESSING LINEAR DATA
 END OF LINEAR DATA
 
 OUTER ITERATION CONVERGENCE CRITERION    (DVCLOSE) =    0.100000E-04
 MAXIMUM NUMBER OF OUTER ITERATIONS        (MXITER) = 100
 SOLVER PRINTOUT INDEX                     (IPRIMS) = 2
 NONLINEAR ITERATION METHOD            (NONLINMETH) = 0
 LINEAR SOLUTION METHOD                   (LINMETH) = 1

       SOLUTION BY THE        CONJUGATE-GRADIENT       METHOD
 ------------------------------------------------------------------
 MAXIMUM OF 100 CALLS OF SOLUTION ROUTINE
 MAXIMUM OF 50 INTERNAL ITERATIONS PER CALL TO SOLUTION ROUTINE
 LINEAR ACCELERATION METHOD            = CG        
 MATRIX PRECONDITIONING TYPE           = INCOMPLETE LU       
 MATRIX SCALING APPROACH               = NO SCALING          
 MATRIX REORDERING APPROACH            = ORIGINAL ORDERING        
 NUMBER OF ORTHOGONALIZATIONS          = 0
 HEAD CHANGE CRITERION FOR CLOSURE     =    0.10000E-05
 RESIDUAL CHANGE CRITERION FOR CLOSURE =    0.10000E-04
 RESIDUAL CONVERGENCE OPTION           = 1
 RESIDUAL CONVERGENCE NORM             = INFINITY NORM S 
 RELAXATION FACTOR                     =    0.00000E+00



 
    Solving:  Stress period:     1    Time step:     1
 
1
                            STRESS PERIOD NO. 1, LENGTH =   1.000000    
                            -----------------------------------------------
                            NUMBER OF TIME STEPS = 1
                            MULTIPLIER FOR DELT =     1.000
                            INITIAL TIME STEP SIZE =   1.000000    

 SLN_1 OUTER ITERATION SUMMARY
 ----------------------------------------------------------------------------------------------------------
                                OUTER      INNER                    STEP   MAXIMUM CHANGE MODEL-(CELLID) OR
 OUTER ITERATION STEP       ITERATION  ITERATION  MAXIMUM CHANGE SUCCESS             MODEL-PACKAGE-(NUMBER)
 ----------------------------------------------------------------------------------------------------------
 Model                              1         50       44.075797                            1_GWF-(1,26519)
 Model                              2         50      -39.112527                            1_GWF-(1,26519)
 Model                              3         50     -0.92733813                            1_GWF-(1,21057)
 Model                              4         50      0.30523241                            1_GWF-(1,25264)
 Model                              5         50 -4.80499560E-02                            1_GWF-(1,25412)
 Model                              6         50  1.96202417E-02                            1_GWF-(1,25263)
 Model                              7         50 -3.35807861E-03                            1_GWF-(1,25412)
 Model                              8         50  1.26409796E-03                            1_GWF-(1,25263)
 Model                              9         50 -2.26413005E-04                            1_GWF-(1,25412)
 Model                             10         50  8.81287958E-05                            1_GWF-(1,25265)
 Model                             11         50 -1.55996729E-05                            1_GWF-(1,25413)
 Model                             12          1 -7.70237655E-07       *                    1_GWF-(1,26218)
 ----------------------------------------------------------------------------------------------------------


 12 CALLS TO NUMERICAL SOLUTION IN TIME STEP 1 STRESS PERIOD 1
 551 TOTAL ITERATIONS

 SLN_1 INNER ITERATION SUMMARY
 --------------------------------------------------------------------------------------------------------------------------------------
      TOTAL      OUTER      INNER                                                            MAXIMUM                                   
  ITERATION  ITERATION  ITERATION  MAXIMUM CHANGE      MAXIMUM CHANGE MODEL-(CELLID)        RESIDUAL    MAXIMUM RESIDUAL MODEL-(CELLID)
 --------------------------------------------------------------------------------------------------------------------------------------
          1          1          1      -11.850595                    1_GWF-(1,12785)      0.15901810                    1_GWF-(1,11171)
          2          1          2       7.7848486                    1_GWF-(1,26516)      0.21836766                    1_GWF-(1,10969)
          3          1          3       9.4325056                    1_GWF-(1,26565)      0.20938991                    1_GWF-(1,10968)
          4          1          4       8.6855679                    1_GWF-(1,26510)      0.18701714                    1_GWF-(1,10955)
          5          1          5       6.7311316                    1_GWF-(1,26647)      0.18291646                    1_GWF-(1,10869)
          6          1          6       7.1306015                    1_GWF-(1,26649)      0.14793085                    1_GWF-(1,11140)
          7          1          7       5.5192477                    1_GWF-(1,26622)      0.19746545                    1_GWF-(1,10969)
          8          1          8       4.4907685                    1_GWF-(1,26665)      0.15997813                    1_GWF-(1,10963)
          9          1          9       3.8502846                    1_GWF-(1,26647)      0.16267404                    1_GWF-(1,10956)
         10          1         10       4.5115874                    1_GWF-(1,26665)      0.16102128                    1_GWF-(1,10869)
         11          1         11       4.1478276                    1_GWF-(1,26544)      0.13977695                    1_GWF-(1,10969)
         12          1         12       3.0309059                    1_GWF-(1,26486)      0.13958050                    1_GWF-(1,10966)
         13          1         13       2.9584469                    1_GWF-(1,26622)      0.13076115                    1_GWF-(1,10962)
         14          1         14       2.4451242                    1_GWF-(1,26623)      0.12444584                    1_GWF-(1,10969)
         15          1         15       2.2998086                    1_GWF-(1,26622)      0.14158341                    1_GWF-(1,10968)
         16          1         16       1.5343159                    1_GWF-(1,26623)      0.12973415                    1_GWF-(1,10961)
         17          1         17      -1.5730945                    1_GWF-(1,26623)      0.13265224                    1_GWF-(1,10958)
         18          1         18       2.4696819                    1_GWF-(1,26588)      0.14340088                    1_GWF-(1,10969)
         19          1         19      -3.3769052                    1_GWF-(1,26588)      0.13877104                    1_GWF-(1,10968)
         20          1         20      -3.1650607                    1_GWF-(1,26543)      0.12763655                    1_GWF-(1,10963)
         21          1         21      -2.7239003                    1_GWF-(1,26544)      0.11681825                    1_GWF-(1,10958)
         22          1         22      -3.5085587                    1_GWF-(1,26486)      0.12872452                    1_GWF-(1,10969)
         23          1         23      -3.9493294                    1_GWF-(1,26487)      0.11173518                    1_GWF-(1,10965)
         24          1         24      -4.2294197                    1_GWF-(1,26486)      0.12008609                    1_GWF-(1,10963)
         25          1         25      -3.3726264                    1_GWF-(1,26487)      0.10456324                    1_GWF-(1,10955)
         26          1         26      -2.2659470                    1_GWF-(1,26588)  9.07794489E-02                    1_GWF-(1,10869)
         27          1         27       2.2013091                    1_GWF-(1,26420)      0.11328968                    1_GWF-(1,10965)
         28          1         28       1.8229271                    1_GWF-(1,26487)      0.11302857                    1_GWF-(1,10957)
         29          1         29       1.7863559                    1_GWF-(1,26420)      0.10220379                    1_GWF-(1,10872)
         30          1         30       1.9169163                    1_GWF-(1,26422)      0.10084112                    1_GWF-(1,10965)
         31          1         31       2.1944603                    1_GWF-(1,26350)      0.11393285                    1_GWF-(1,10960)
         32          1         32       2.5279824                    1_GWF-(1,26422)  9.62200332E-02                    1_GWF-(1,10958)
         33          1         33       2.4551561                    1_GWF-(1,26350) -7.64623610E-02                    1_GWF-(1,10960)
         34          1         34       2.3749105                    1_GWF-(1,26422)  6.40485531E-02                    1_GWF-(1,10966)
         35          1         35      -2.0299086                    1_GWF-(1,26422)  7.04610957E-02                    1_GWF-(1,10958)
         36          1         36      -1.5440517                    1_GWF-(1,26350)  6.05213988E-02                    1_GWF-(1,10968)
         37          1         37      -1.2287768                    1_GWF-(1,26422)  4.60886976E-02                    1_GWF-(1,10961)
         38          1         38     -0.93615607                    1_GWF-(1,24901) -5.25241026E-02                    1_GWF-(1,10967)
         39          1         39     -0.86681184                    1_GWF-(1,24906)  4.67369751E-02                    1_GWF-(1,10968)
         40          1         40      -1.0516271                    1_GWF-(1,26648)  4.31286421E-02                    1_GWF-(1,10961)
         41          1         41      -1.3811903                    1_GWF-(1,26649)  4.64872698E-02                    1_GWF-(1,10963)
         42          1         42      -1.4738309                    1_GWF-(1,26648) -4.45621086E-02                    1_GWF-(1,10991)
         43          1         43      -1.2879306                    1_GWF-(1,26586) -5.71125805E-02                    1_GWF-(1,11138)
         44          1         44      -1.1467145                    1_GWF-(1,26623)  4.31106019E-02                    1_GWF-(1,11140)
         45          1         45      0.97574928                    1_GWF-(1,26218) -5.16195459E-02                    1_GWF-(1,11140)
         46          1         46     -0.86327216                    1_GWF-(1,21319) -4.56894190E-02                    1_GWF-(1,11138)
         47          1         47      -1.1563313                    1_GWF-(1,26217)  4.69086566E-02                    1_GWF-(1,11139)
         48          1         48      -1.4854675                    1_GWF-(1,26218)  4.56924738E-02                    1_GWF-(1,14868)
         49          1         49      -1.5242926                    1_GWF-(1,26217) -4.83963930E-02                    1_GWF-(1,10990)
         50          1         50      -1.4019450                    1_GWF-(1,26218)  3.98932704E-02                    1_GWF-(1,14868)
         51          2          1      -40.794363                    1_GWF-(1,26519)     -0.14094664                    1_GWF-(1,26519)
         52          2          2      -15.766409                    1_GWF-(1,26513) -4.43811158E-02                    1_GWF-(1,26516)
         53          2          3      -7.5207711                    1_GWF-(1,26637)  3.49785095E-02                    1_GWF-(1,26516)
         54          2          4      -9.1547175                    1_GWF-(1,26665)  3.22393246E-02                    1_GWF-(1,14868)
         55          2          5      -4.8349952                    1_GWF-(1,26622)  2.62349915E-02                    1_GWF-(1,14869)
         56          2          6      -4.6405566                    1_GWF-(1,26589)  3.90940899E-02                    1_GWF-(1,14868)
         57          2          7      -3.7506287                    1_GWF-(1,26543)  3.64308661E-02                    1_GWF-(1,14869)
         58          2          8      -3.4843472                    1_GWF-(1,26486)  5.88762830E-02                    1_GWF-(1,14868)
         59          2          9      -2.3517388                    1_GWF-(1,26487)  3.84934934E-02                    1_GWF-(1,14869)
         60          2         10      -2.2246500                    1_GWF-(1,26350)  3.77395560E-02                    1_GWF-(1,14868)
         61          2         11      -1.8525955                    1_GWF-(1,26348)  1.04297981E-02                    1_GWF-(1,14868)
         62          2         12      -1.6186523                    1_GWF-(1,26217)  2.20276368E-02                    1_GWF-(1,14869)
         63          2         13      -1.0372387                    1_GWF-(1,26218)  3.42034540E-02                    1_GWF-(1,14868)
         64          2         14     -0.68165218                    1_GWF-(1,26649)  2.77460152E-02                    1_GWF-(1,14869)
         65          2         15     -0.72246545                    1_GWF-(1,26622)  2.39681609E-02                    1_GWF-(1,14868)
         66          2         16      0.88026268                    1_GWF-(1,26420)  2.34334872E-02                    1_GWF-(1,14868)
         67          2         17       1.1538049                    1_GWF-(1,26218)  2.60804639E-02                    1_GWF-(1,14869)
         68          2         18      0.95401418                    1_GWF-(1,26217)  3.63151788E-02                    1_GWF-(1,14868)
         69          2         19      0.83444862                    1_GWF-(1,26218)  2.33489698E-02                    1_GWF-(1,14869)
         70          2         20      0.64882095                    1_GWF-(1,26543)  2.17235413E-02                    1_GWF-(1,14868)
         71          2         21      0.92280390                    1_GWF-(1,26588)  1.47098050E-02                    1_GWF-(1,14868)
         72          2         22      0.97117512                    1_GWF-(1,26543)  2.28096225E-02                    1_GWF-(1,14869)
         73          2         23     -0.60362133                    1_GWF-(1,26218)  4.13312566E-02                    1_GWF-(1,14868)
         74          2         24     -0.80409354                    1_GWF-(1,26487)  3.30884023E-02                    1_GWF-(1,14869)
         75          2         25      -1.0999370                    1_GWF-(1,26486)  3.37153434E-02                    1_GWF-(1,14868)
         76          2         26      -1.0965819                    1_GWF-(1,26487)  1.21209211E-02                    1_GWF-(1,14868)
         77          2         27     -0.70833978                    1_GWF-(1,26588)  2.59072523E-02                    1_GWF-(1,14869)
         78          2         28     -0.34717702                    1_GWF-(1,26398)  4.35805241E-02                    1_GWF-(1,14868)
         79          2         29     -0.39119123                    1_GWF-(1,26327)  4.03198861E-02                    1_GWF-(1,14869)
         80          2         30      0.35782761                    1_GWF-(1,26420)  6.19738931E-02                    1_GWF-(1,14868)
         81          2         31     -0.25988258                    1_GWF-(1,26175)  5.67564227E-02                    1_GWF-(1,14869)
         82          2         32     -0.26681280                    1_GWF-(1,26674)  8.60363452E-02                    1_GWF-(1,14868)
         83          2         33     -0.24373123                    1_GWF-(1,26350)  7.18298287E-02                    1_GWF-(1,14869)
         84          2         34     -0.19794705                    1_GWF-(1,25803)  9.44152723E-02                    1_GWF-(1,14868)
         85          2         35      0.32126171                    1_GWF-(1,26422)  6.45677713E-02                    1_GWF-(1,14869)
         86          2         36      0.27248377                    1_GWF-(1,26350)  6.79867557E-02                    1_GWF-(1,14868)
         87          2         37      0.20811874                    1_GWF-(1,26422)  3.77176768E-02                    1_GWF-(1,14869)
         88          2         38      0.20759143                    1_GWF-(1,26544)  2.88383148E-02                    1_GWF-(1,14868)
         89          2         39     -0.21283481                    1_GWF-(1,26649)  2.78799121E-02                    1_GWF-(1,14868)
         90          2         40     -0.29494238                    1_GWF-(1,26486)  4.97036883E-02                    1_GWF-(1,14869)
         91          2         41      0.22523521                    1_GWF-(1,26422)  9.30897797E-02                    1_GWF-(1,14868)
         92          2         42     -0.22959852                    1_GWF-(1,26421)     -0.10926228                    1_GWF-(1,14868)
         93          2         43     -0.34924300                    1_GWF-(1,26350)      0.13907651                    1_GWF-(1,14868)
         94          2         44     -0.21273051                    1_GWF-(1,26486)     -0.12850360                    1_GWF-(1,14868)
         95          2         45     -0.25486606                    1_GWF-(1,26420)      0.13684790                    1_GWF-(1,14868)
         96          2         46     -0.17022622                    1_GWF-(1,26421) -9.99792889E-02                    1_GWF-(1,14868)
         97          2         47     -0.24419528                    1_GWF-(1,26350)  8.65663237E-02                    1_GWF-(1,14868)
         98          2         48     -0.16950041                    1_GWF-(1,26664) -6.00176832E-02                    1_GWF-(1,14868)
         99          2         49     -0.15842422                    1_GWF-(1,26649)  5.99877117E-02                    1_GWF-(1,14868)
        100          2         50     -0.19165476                    1_GWF-(1,26623) -4.56129836E-02                    1_GWF-(1,14868)
        101          3          1     -0.22754727                    1_GWF-(1,16215)  2.77075527E-02                    1_GWF-(1,14868)
        102          3          2      0.16618018                    1_GWF-(1,26586) -5.93445453E-02                    1_GWF-(1,14868)
        103          3          3      0.23306693                    1_GWF-(1,26623)  6.73641463E-02                    1_GWF-(1,14868)
        104          3          4      0.16884597                    1_GWF-(1,26649) -5.07231259E-02                    1_GWF-(1,14868)
        105          3          5     -0.18677098                    1_GWF-(1,16130)  6.61148089E-02                    1_GWF-(1,14868)
        106          3          6      0.16042431                    1_GWF-(1,16130) -7.14945949E-02                    1_GWF-(1,14868)
        107          3          7      0.12927155                    1_GWF-(1,26198)  7.00654437E-02                    1_GWF-(1,14868)
        108          3          8     -0.15701041                    1_GWF-(1,26674) -5.39375583E-02                    1_GWF-(1,14868)
        109          3          9      0.13906099                    1_GWF-(1,16130)  6.14096168E-02                    1_GWF-(1,14868)
        110          3         10      0.12902318                    1_GWF-(1,26350) -4.45582182E-02                    1_GWF-(1,14868)
        111          3         11      0.12874072                    1_GWF-(1,26486)  3.82406883E-02                    1_GWF-(1,14868)
        112          3         12     -0.15595221                    1_GWF-(1,26422)  1.90422223E-02                    1_GWF-(1,14869)
        113          3         13     -0.11319115                    1_GWF-(1,26350)  1.32813353E-02                    1_GWF-(1,14868)
        114          3         14      0.13518689                    1_GWF-(1,26350)  4.68343160E-03                    1_GWF-(1,14868)
        115          3         15     -0.12636392                    1_GWF-(1,26350)  1.10346132E-02                    1_GWF-(1,14869)
        116          3         16     -0.13302630                    1_GWF-(1,26422)  2.37646817E-02                    1_GWF-(1,14868)
        117          3         17      0.10691127                    1_GWF-(1,26422)  2.25191498E-02                    1_GWF-(1,14869)
        118          3         18      0.12383176                    1_GWF-(1,26350)  3.60935774E-02                    1_GWF-(1,14868)
        119          3         19 -8.15251494E-02                    1_GWF-(1,26350) -3.78021426E-02                    1_GWF-(1,14868)
        120          3         20  9.07363653E-02                    1_GWF-(1,26420)  4.51898856E-02                    1_GWF-(1,14868)
        121          3         21 -8.66805834E-02                    1_GWF-(1,26420) -3.90446332E-02                    1_GWF-(1,14868)
        122          3         22 -9.91581594E-02                    1_GWF-(1,25297)  4.12704869E-02                    1_GWF-(1,14868)
        123          3         23     -0.11904302                    1_GWF-(1,25444) -3.04164229E-02                    1_GWF-(1,14868)
        124          3         24      0.12628926                    1_GWF-(1,26588)  2.65188357E-02                    1_GWF-(1,14868)
        125          3         25      0.16591929                    1_GWF-(1,26487)  8.07044188E-03                    1_GWF-(1,14869)
        126          3         26      0.19786480                    1_GWF-(1,26420)  9.16068163E-03                    1_GWF-(1,14869)
        127          3         27      0.21753077                    1_GWF-(1,26487)  2.08907475E-02                    1_GWF-(1,14868)
        128          3         28     -0.13964256                    1_GWF-(1,26487)  1.55854222E-02                    1_GWF-(1,14869)
        129          3         29     -0.16407334                    1_GWF-(1,26486)  1.47481394E-02                    1_GWF-(1,14868)
        130          3         30     -0.15806505                    1_GWF-(1,26588)  3.45856334E-03                    1_GWF-(1,14869)
        131          3         31     -0.15389399                    1_GWF-(1,26543)  4.89020446E-03                    1_GWF-(1,14869)
        132          3         32     -0.15177898                    1_GWF-(1,26588)  1.09721157E-02                    1_GWF-(1,14868)
        133          3         33      0.11954617                    1_GWF-(1,26588)  8.54440898E-03                    1_GWF-(1,14869)
        134          3         34  8.93750166E-02                    1_GWF-(1,26543)  9.63412720E-03                    1_GWF-(1,14868)
        135          3         35     -0.11906099                    1_GWF-(1,26665)  2.84655188E-03                    1_GWF-(1,14869)
        136          3         36      0.10692561                    1_GWF-(1,26665)  2.82009967E-03                    1_GWF-(1,14869)
        137          3         37      0.12725634                    1_GWF-(1,26666)  5.74590595E-03                    1_GWF-(1,14868)
        138          3         38      0.13426506                    1_GWF-(1,26622) -4.43976079E-03                    1_GWF-(1,14868)
        139          3         39  9.70675985E-02                    1_GWF-(1,26217)  3.89987178E-03                    1_GWF-(1,14868)
        140          3         40     -0.13977740                    1_GWF-(1,26665)  1.38466944E-03                    1_GWF-(1,10956)
        141          3         41      0.13559123                    1_GWF-(1,26665) -2.68976242E-03                    1_GWF-(1,14868)
        142          3         42     -0.15429944                    1_GWF-(1,26665)  4.63172370E-03                    1_GWF-(1,14868)
        143          3         43     -0.13698107                    1_GWF-(1,26666) -4.52769198E-03                    1_GWF-(1,14868)
        144          3         44      0.12562174                    1_GWF-(1,26543)  4.74909385E-03                    1_GWF-(1,14868)
        145          3         45      0.14617656                    1_GWF-(1,26649)  3.30599941E-03                    1_GWF-(1,14869)
        146          3         46      0.15036380                    1_GWF-(1,26648)  4.45777261E-03                    1_GWF-(1,14867)
        147          3         47  9.11283403E-02                    1_GWF-(1,26664) -3.36938543E-03                    1_GWF-(1,14867)
        148          3         48  9.35632209E-02                    1_GWF-(1,26217)  3.14082539E-03                    1_GWF-(1,14867)
        149          3         49     -0.10490278                    1_GWF-(1,26648) -3.84215087E-03                    1_GWF-(1,14867)
        150          3         50     -0.10605173                    1_GWF-(1,26218)  3.33719189E-03                    1_GWF-(1,14867)
        151          4          1 -6.88505410E-02                    1_GWF-(1,26217) -2.51638628E-03                    1_GWF-(1,14867)
        152          4          2 -7.03307245E-02                    1_GWF-(1,26218)  2.56573996E-03                    1_GWF-(1,14867)
        153          4          3 -7.66861153E-02                    1_GWF-(1,26217)  2.00652670E-03                    1_GWF-(1,14782)
        154          4          4 -7.70263521E-02                    1_GWF-(1,26218)  2.57977324E-03                    1_GWF-(1,14867)
        155          4          5 -5.56492577E-02                    1_GWF-(1,26422)  1.65938740E-03                    1_GWF-(1,14782)
        156          4          6 -5.02280236E-02                    1_GWF-(1,26218)  1.82551956E-03                    1_GWF-(1,14868)
        157          4          7 -3.81896216E-02                    1_GWF-(1,26485) -1.54149987E-03                    1_GWF-(1,14868)
        158          4          8 -5.29645953E-02                    1_GWF-(1,26665)  1.67812498E-03                    1_GWF-(1,14868)
        159          4          9 -6.34196212E-02                    1_GWF-(1,26666) -1.62943586E-03                    1_GWF-(1,14868)
        160          4         10 -6.23157544E-02                    1_GWF-(1,26665) -9.50882925E-04                    1_GWF-(1,14867)
        161          4         11  6.45629458E-02                    1_GWF-(1,26665)  5.65213576E-04                    1_GWF-(1,10957)
        162          4         12  3.86944152E-02                    1_GWF-(1,26622) -1.11081411E-03                    1_GWF-(1,14868)
        163          4         13  3.86689771E-02                    1_GWF-(1,26623)  1.52906250E-03                    1_GWF-(1,14868)
        164          4         14  5.33674764E-02                    1_GWF-(1,26622)  1.09918332E-03                    1_GWF-(1,14869)
        165          4         15  4.54823715E-02                    1_GWF-(1,26623)  6.90439100E-04                    1_GWF-(1,14868)
        166          4         16  3.61883125E-02                    1_GWF-(1,26665)  9.17001170E-04                    1_GWF-(1,14868)
        167          4         17  2.62440331E-02                    1_GWF-(1,26588) -1.25946793E-03                    1_GWF-(1,14868)
        168          4         18  2.10649105E-02                    1_GWF-(1,26543)  1.39689632E-03                    1_GWF-(1,14868)
        169          4         19 -2.56814785E-02                    1_GWF-(1,26543) -1.43316553E-03                    1_GWF-(1,14868)
        170          4         20 -3.58112083E-02                    1_GWF-(1,26588)  6.66466042E-04                    1_GWF-(1,14868)
        171          4         21 -3.49464900E-02                    1_GWF-(1,26543)  9.83168914E-04                    1_GWF-(1,14868)
        172          4         22 -2.60568572E-02                    1_GWF-(1,26588)  1.63617302E-03                    1_GWF-(1,14869)
        173          4         23 -3.20186297E-02                    1_GWF-(1,26486)  2.58834754E-03                    1_GWF-(1,14868)
        174          4         24 -3.69075474E-02                    1_GWF-(1,26487)  1.86600436E-03                    1_GWF-(1,14869)
        175          4         25 -3.14919306E-02                    1_GWF-(1,26420)  9.25717731E-04                    1_GWF-(1,14868)
        176          4         26 -2.69064107E-02                    1_GWF-(1,26487)  1.56188437E-03                    1_GWF-(1,14868)
        177          4         27 -1.97196613E-02                    1_GWF-(1,26420) -2.49996294E-03                    1_GWF-(1,14868)
        178          4         28 -1.31673061E-02                    1_GWF-(1,26421)  4.18380298E-03                    1_GWF-(1,14868)
        179          4         29  1.20821627E-02                    1_GWF-(1,26543) -4.54364479E-03                    1_GWF-(1,14868)
        180          4         30  1.43565398E-02                    1_GWF-(1,26420)  5.33878485E-03                    1_GWF-(1,14868)
        181          4         31  2.03161729E-02                    1_GWF-(1,26422) -4.51256244E-03                    1_GWF-(1,14868)
        182          4         32  2.02904173E-02                    1_GWF-(1,26350)  5.49076329E-03                    1_GWF-(1,14868)
        183          4         33  1.99204638E-02                    1_GWF-(1,26421)  3.73990593E-03                    1_GWF-(1,14869)
        184          4         34  1.93159897E-02                    1_GWF-(1,26350)  4.06927548E-03                    1_GWF-(1,14868)
        185          4         35  1.99059323E-02                    1_GWF-(1,26422)  2.08388997E-03                    1_GWF-(1,14869)
        186          4         36  1.13714731E-02                    1_GWF-(1,26350)  1.56831371E-03                    1_GWF-(1,14868)
        187          4         37 -1.78600049E-02                    1_GWF-(1,26350)  1.33252328E-03                    1_GWF-(1,14782)
        188          4         38 -1.59435727E-02                    1_GWF-(1,26422)  1.73244952E-03                    1_GWF-(1,14867)
        189          4         39 -1.49910694E-02                    1_GWF-(1,26544)  2.33399284E-03                    1_GWF-(1,14868)
        190          4         40 -1.57185740E-02                    1_GWF-(1,26486) -2.32001138E-03                    1_GWF-(1,14868)
        191          4         41 -1.23953936E-02                    1_GWF-(1,26350)  3.20470436E-03                    1_GWF-(1,14868)
        192          4         42 -9.59394533E-03                    1_GWF-(1,26422) -2.92564119E-03                    1_GWF-(1,14868)
        193          4         43 -9.09231501E-03                    1_GWF-(1,26544)  3.52235332E-03                    1_GWF-(1,14868)
        194          4         44 -7.02596948E-03                    1_GWF-(1,26486) -3.11957309E-03                    1_GWF-(1,14868)
        195          4         45 -6.48166590E-03                    1_GWF-(1,16130)  3.46163087E-03                    1_GWF-(1,14868)
        196          4         46  7.10196825E-03                    1_GWF-(1,16130) -3.34658768E-03                    1_GWF-(1,14868)
        197          4         47  9.13356262E-03                    1_GWF-(1,26672)  3.87253688E-03                    1_GWF-(1,14868)
        198          4         48 -6.53809285E-03                    1_GWF-(1,26623) -3.74291254E-03                    1_GWF-(1,14868)
        199          4         49  8.03806094E-03                    1_GWF-(1,26623)  2.70421392E-03                    1_GWF-(1,14868)
        200          4         50  8.01827667E-03                    1_GWF-(1,26326) -2.76471239E-03                    1_GWF-(1,14868)
        201          5          1 -1.28591915E-02                    1_GWF-(1,11933)  2.00252558E-03                    1_GWF-(1,14868)
        202          5          2 -6.29750901E-03                    1_GWF-(1,11934) -2.70756405E-03                    1_GWF-(1,14868)
        203          5          3 -5.74639547E-03                    1_GWF-(1,26673)  2.75087458E-03                    1_GWF-(1,14868)
        204          5          4 -6.17102522E-03                    1_GWF-(1,26672) -2.62929769E-03                    1_GWF-(1,14868)
        205          5          5  4.99891337E-03                    1_GWF-(1,26422)  2.59408879E-03                    1_GWF-(1,14868)
        206          5          6 -3.61074669E-03                    1_GWF-(1,20231) -2.43532076E-03                    1_GWF-(1,14868)
        207          5          7 -4.74403249E-03                    1_GWF-(1,26350)  2.75691553E-03                    1_GWF-(1,14868)
        208          5          8 -5.89766621E-03                    1_GWF-(1,26422) -2.39305283E-03                    1_GWF-(1,14868)
        209          5          9 -3.81051178E-03                    1_GWF-(1,25722)  2.50913404E-03                    1_GWF-(1,14868)
        210          5         10 -4.96390835E-03                    1_GWF-(1,26486) -1.81581847E-03                    1_GWF-(1,14868)
        211          5         11  6.76717653E-03                    1_GWF-(1,26486)  1.78197801E-03                    1_GWF-(1,14868)
        212          5         12 -6.82741009E-03                    1_GWF-(1,26422)  1.00805542E-03                    1_GWF-(1,14869)
        213          5         13  8.01692069E-03                    1_GWF-(1,26422)  5.66049950E-04                    1_GWF-(1,14868)
        214          5         14  8.71130554E-03                    1_GWF-(1,26350)  4.68400032E-04                    1_GWF-(1,14867)
        215          5         15 -7.14606873E-03                    1_GWF-(1,26544)  8.01850848E-04                    1_GWF-(1,14869)
        216          5         16 -8.57685485E-03                    1_GWF-(1,26486)  1.37432775E-03                    1_GWF-(1,14868)
        217          5         17 -8.19033618E-03                    1_GWF-(1,26588)  7.21134771E-04                    1_GWF-(1,14869)
        218          5         18 -7.74087867E-03                    1_GWF-(1,26589)  3.55267011E-04                    1_GWF-(1,14869)
        219          5         19 -8.57954920E-03                    1_GWF-(1,26422)  1.33033269E-03                    1_GWF-(1,14868)
        220          5         20 -9.66048923E-03                    1_GWF-(1,26350) -1.69965980E-03                    1_GWF-(1,14868)
        221          5         21 -7.12998235E-03                    1_GWF-(1,26422)  2.43040308E-03                    1_GWF-(1,14868)
        222          5         22 -4.80114107E-03                    1_GWF-(1,26420) -2.44146799E-03                    1_GWF-(1,14868)
        223          5         23 -5.04690382E-03                    1_GWF-(1,25421)  2.47868835E-03                    1_GWF-(1,14868)
        224          5         24  5.88325728E-03                    1_GWF-(1,26486) -1.73479685E-03                    1_GWF-(1,14868)
        225          5         25  5.49257082E-03                    1_GWF-(1,26487)  1.21763249E-03                    1_GWF-(1,14868)
        226          5         26  6.08568131E-03                    1_GWF-(1,26486)  2.09369785E-04                    1_GWF-(1,14782)
        227          5         27 -7.37374544E-03                    1_GWF-(1,26649)  8.41989621E-04                    1_GWF-(1,14869)
        228          5         28 -6.65702596E-03                    1_GWF-(1,26622)  1.48493844E-03                    1_GWF-(1,14868)
        229          5         29 -4.71274939E-03                    1_GWF-(1,26649) -1.11145621E-03                    1_GWF-(1,14868)
        230          5         30 -4.39202375E-03                    1_GWF-(1,22710)  1.07844793E-03                    1_GWF-(1,14868)
        231          5         31 -3.51472666E-03                    1_GWF-(1,26420) -5.99851859E-04                    1_GWF-(1,14868)
        232          5         32  3.70980627E-03                    1_GWF-(1,26665)  5.27313942E-04                    1_GWF-(1,14868)
        233          5         33  4.09313764E-03                    1_GWF-(1,26647) -3.40442558E-04                    1_GWF-(1,14867)
        234          5         34  5.52812151E-03                    1_GWF-(1,26622)  5.63152485E-04                    1_GWF-(1,14867)
        235          5         35 -7.29516282E-03                    1_GWF-(1,26665)  3.83036920E-04                    1_GWF-(1,14782)
        236          5         36 -5.56812541E-03                    1_GWF-(1,26666)  3.36970563E-04                    1_GWF-(1,14869)
        237          5         37 -4.43037001E-03                    1_GWF-(1,26588)  4.33035818E-04                    1_GWF-(1,14868)
        238          5         38 -4.25359950E-03                    1_GWF-(1,26589) -4.13834921E-04                    1_GWF-(1,14867)
        239          5         39 -5.39152567E-03                    1_GWF-(1,26588)  6.34465643E-04                    1_GWF-(1,14867)
        240          5         40 -4.78668788E-03                    1_GWF-(1,26665) -5.92659364E-04                    1_GWF-(1,14867)
        241          5         41  7.02827325E-03                    1_GWF-(1,26665)  3.37996934E-04                    1_GWF-(1,14867)
        242          5         42  6.72357864E-03                    1_GWF-(1,26588)  2.51175318E-04                    1_GWF-(1,14867)
        243          5         43  5.85064684E-03                    1_GWF-(1,26589) -5.52611117E-04                    1_GWF-(1,14867)
        244          5         44  4.38207813E-03                    1_GWF-(1,26588)  7.83348656E-04                    1_GWF-(1,14867)
        245          5         45  3.35383941E-03                    1_GWF-(1,26665) -9.14573905E-04                    1_GWF-(1,14867)
        246          5         46  2.87077684E-03                    1_GWF-(1,26666)  1.06027556E-03                    1_GWF-(1,14867)
        247          5         47  3.31013051E-03                    1_GWF-(1,26218) -9.22738761E-04                    1_GWF-(1,14867)
        248          5         48  4.17337252E-03                    1_GWF-(1,26217)  9.16391748E-04                    1_GWF-(1,14867)
        249          5         49  3.33536405E-03                    1_GWF-(1,26218) -8.17944033E-04                    1_GWF-(1,14867)
        250          5         50 -2.89144653E-03                    1_GWF-(1,26218)  7.47073557E-04                    1_GWF-(1,14867)
        251          6          1 -5.92546137E-03                    1_GWF-(1,11932) -4.52511584E-04                    1_GWF-(1,14867)
        252          6          2 -3.04388074E-03                    1_GWF-(1,11931)  6.37480217E-04                    1_GWF-(1,14867)
        253          6          3 -3.68708552E-03                    1_GWF-(1,26217) -5.95343105E-04                    1_GWF-(1,14867)
        254          6          4 -3.77455984E-03                    1_GWF-(1,26218)  6.03413917E-04                    1_GWF-(1,14867)
        255          6          5 -2.89009767E-03                    1_GWF-(1,26422) -4.48829206E-04                    1_GWF-(1,14867)
        256          6          6 -2.45524561E-03                    1_GWF-(1,26218)  4.10755756E-04                    1_GWF-(1,14867)
        257          6          7 -1.93737474E-03                    1_GWF-(1,26486) -2.20910628E-04                    1_GWF-(1,14867)
        258          6          8 -2.56239546E-03                    1_GWF-(1,26665)  1.32743230E-04                    1_GWF-(1,14868)
        259          6          9 -2.79482122E-03                    1_GWF-(1,26666)  1.42007179E-04                    1_GWF-(1,14867)
        260          6         10 -2.89679625E-03                    1_GWF-(1,26665) -1.97848078E-04                    1_GWF-(1,14867)
        261          6         11  2.80533633E-03                    1_GWF-(1,26665)  1.80561210E-04                    1_GWF-(1,14867)
        262          6         12  2.50434909E-03                    1_GWF-(1,26588)  6.85838083E-05                    1_GWF-(1,14782)
        263          6         13  2.00846997E-03                    1_GWF-(1,26589)  1.21763385E-04                    1_GWF-(1,14868)
        264          6         14  1.91077460E-03                    1_GWF-(1,26588)  1.32196182E-04                    1_GWF-(1,14867)
        265          6         15  1.92135633E-03                    1_GWF-(1,26649)  1.60537934E-04                    1_GWF-(1,14782)
        266          6         16  2.11200733E-03                    1_GWF-(1,26588)  1.55021797E-04                    1_GWF-(1,14867)
        267          6         17  1.84480978E-03                    1_GWF-(1,26543)  3.84007473E-05                    1_GWF-(1,14782)
        268          6         18  1.18742871E-03                    1_GWF-(1,26588)  7.94496146E-05                    1_GWF-(1,14868)
        269          6         19  9.72991194E-04                    1_GWF-(1,24661)  1.27573325E-04                    1_GWF-(1,14867)
        270          6         20  1.03334565E-03                    1_GWF-(1,24664)  1.78161494E-04                    1_GWF-(1,14782)
        271          6         21  1.01262081E-03                    1_GWF-(1,24689)  2.59980185E-04                    1_GWF-(1,14867)
        272          6         22 -1.03021924E-03                    1_GWF-(1,26648)  2.34365342E-04                    1_GWF-(1,14868)
        273          6         23 -1.41304320E-03                    1_GWF-(1,26649)  1.83788327E-04                    1_GWF-(1,14867)
        274          6         24 -1.76706280E-03                    1_GWF-(1,26622)  8.07095162E-05                    1_GWF-(1,14868)
        275          6         25 -1.55851794E-03                    1_GWF-(1,26623)  1.33057852E-04                    1_GWF-(1,14782)
        276          6         26 -9.95068377E-04                    1_GWF-(1,26622)  2.46087988E-04                    1_GWF-(1,14867)
        277          6         27 -9.08743100E-04                    1_GWF-(1,26421)  2.78829434E-04                    1_GWF-(1,14868)
        278          6         28 -9.13684750E-04                    1_GWF-(1,26420) -2.70586172E-04                    1_GWF-(1,14868)
        279          6         29  9.63463026E-04                    1_GWF-(1,26420)  2.86226136E-04                    1_GWF-(1,14868)
        280          6         30  1.15941062E-03                    1_GWF-(1,26422) -1.59970982E-04                    1_GWF-(1,14868)
        281          6         31  1.49572312E-03                    1_GWF-(1,26486)  1.10352120E-04                    1_GWF-(1,14867)
        282          6         32  1.70895668E-03                    1_GWF-(1,26487)  1.78200553E-04                    1_GWF-(1,14868)
        283          6         33  1.47289027E-03                    1_GWF-(1,26486)  2.03622408E-04                    1_GWF-(1,14869)
        284          6         34  9.68864352E-04                    1_GWF-(1,26487)  2.65909753E-04                    1_GWF-(1,14868)
        285          6         35  9.82383857E-04                    1_GWF-(1,26486) -1.71772890E-04                    1_GWF-(1,14868)
        286          6         36  7.75289481E-04                    1_GWF-(1,26350)  1.76590261E-04                    1_GWF-(1,14868)
        287          6         37 -1.15037423E-03                    1_GWF-(1,26350)  1.27213544E-04                    1_GWF-(1,14782)
        288          6         38 -1.12502284E-03                    1_GWF-(1,26422)  1.81127408E-04                    1_GWF-(1,14867)
        289          6         39 -7.83642141E-04                    1_GWF-(1,26350)  1.33960828E-04                    1_GWF-(1,14782)
        290          6         40 -7.00823655E-04                    1_GWF-(1,26486)  1.35246677E-04                    1_GWF-(1,14867)
        291          6         41 -6.71275137E-04                    1_GWF-(1,26350)  1.68656562E-04                    1_GWF-(1,14868)
        292          6         42 -5.08863546E-04                    1_GWF-(1,26422) -1.80419115E-04                    1_GWF-(1,14868)
        293          6         43  4.80298269E-04                    1_GWF-(1,26422)  2.49310735E-04                    1_GWF-(1,14868)
        294          6         44  5.62324293E-04                    1_GWF-(1,26350) -2.27264454E-04                    1_GWF-(1,14868)
        295          6         45  2.86099445E-04                    1_GWF-(1,26486)  2.63191274E-04                    1_GWF-(1,14868)
        296          6         46 -2.94159912E-04                    1_GWF-(1,26422) -2.53376025E-04                    1_GWF-(1,14868)
        297          6         47 -3.66849853E-04                    1_GWF-(1,25786)  2.38773687E-04                    1_GWF-(1,14868)
        298          6         48 -3.57131234E-04                    1_GWF-(1,25651) -2.07063602E-04                    1_GWF-(1,14868)
        299          6         49 -3.15321370E-04                    1_GWF-(1,25726)  1.66957524E-04                    1_GWF-(1,14868)
        300          6         50  3.16552183E-04                    1_GWF-(1,26586) -1.60937778E-04                    1_GWF-(1,14868)
        301          7          1  2.61317387E-04                    1_GWF-(1,26672)  1.64885046E-04                    1_GWF-(1,14868)
        302          7          2 -2.58848084E-04                    1_GWF-(1,26218) -1.71573481E-04                    1_GWF-(1,14868)
        303          7          3  2.53947139E-04                    1_GWF-(1,25793)  1.81088743E-04                    1_GWF-(1,14868)
        304          7          4  2.98258250E-04                    1_GWF-(1,26217) -2.00248750E-04                    1_GWF-(1,14868)
        305          7          5  2.95256542E-04                    1_GWF-(1,26422)  2.12009475E-04                    1_GWF-(1,14868)
        306          7          6 -2.91187747E-04                    1_GWF-(1,26486) -1.94301213E-04                    1_GWF-(1,14868)
        307          7          7 -4.06820177E-04                    1_GWF-(1,26350)  2.06462988E-04                    1_GWF-(1,14868)
        308          7          8 -4.35311436E-04                    1_GWF-(1,26422) -1.54002545E-04                    1_GWF-(1,14868)
        309          7          9  2.91676148E-04                    1_GWF-(1,26588)  1.35512385E-04                    1_GWF-(1,14868)
        310          7         10  3.14243147E-04                    1_GWF-(1,26350)  8.54637520E-05                    1_GWF-(1,14867)
        311          7         11  3.66530654E-04                    1_GWF-(1,26486)  8.22786870E-05                    1_GWF-(1,14782)
        312          7         12  3.74005829E-04                    1_GWF-(1,26350)  1.00613305E-04                    1_GWF-(1,14867)
        313          7         13  5.77894205E-04                    1_GWF-(1,26588)  5.57466368E-05                    1_GWF-(1,14782)
        314          7         14 -6.24866409E-04                    1_GWF-(1,26588)  8.33295668E-05                    1_GWF-(1,14868)
        315          7         15 -6.87703164E-04                    1_GWF-(1,26543)  6.16766848E-05                    1_GWF-(1,14867)
        316          7         16 -5.11547166E-04                    1_GWF-(1,26588)  7.24596635E-05                    1_GWF-(1,14782)
        317          7         17 -5.48338532E-04                    1_GWF-(1,26486)  8.11549893E-05                    1_GWF-(1,14867)
        318          7         18 -5.10672172E-04                    1_GWF-(1,26487)  7.68076524E-05                    1_GWF-(1,14869)
        319          7         19 -6.11011468E-04                    1_GWF-(1,26486)  1.07049760E-04                    1_GWF-(1,14868)
        320          7         20 -5.93170304E-04                    1_GWF-(1,26487)  6.02966127E-05                    1_GWF-(1,14867)
        321          7         21 -5.61633804E-04                    1_GWF-(1,26420) -5.44812825E-05                    1_GWF-(1,14867)
        322          7         22 -4.85625888E-04                    1_GWF-(1,26422)  7.21825805E-05                    1_GWF-(1,14868)
        323          7         23  4.36228568E-04                    1_GWF-(1,26422) -9.44715660E-05                    1_GWF-(1,14868)
        324          7         24  4.39541927E-04                    1_GWF-(1,26420)  1.17771836E-04                    1_GWF-(1,14868)
        325          7         25  4.06923656E-04                    1_GWF-(1,26486) -9.54064883E-05                    1_GWF-(1,14868)
        326          7         26  3.18565259E-04                    1_GWF-(1,26544)  7.75319303E-05                    1_GWF-(1,14868)
        327          7         27 -3.65235902E-04                    1_GWF-(1,26622)  4.05524927E-05                    1_GWF-(1,14867)
        328          7         28  4.57805452E-04                    1_GWF-(1,26487)  4.44283802E-05                    1_GWF-(1,14869)
        329          7         29  4.19214637E-04                    1_GWF-(1,26420)  9.48665273E-05                    1_GWF-(1,14868)
        330          7         30 -3.47817051E-04                    1_GWF-(1,26420) -8.67158253E-05                    1_GWF-(1,14868)
        331          7         31 -2.48274688E-04                    1_GWF-(1,24664)  8.42971178E-05                    1_GWF-(1,14868)
        332          7         32 -2.31248402E-04                    1_GWF-(1,24661)  6.66885741E-05                    1_GWF-(1,14867)
        333          7         33 -2.36634291E-04                    1_GWF-(1,26218)  5.69291233E-05                    1_GWF-(1,14868)
        334          7         34 -2.16443103E-04                    1_GWF-(1,26217)  4.73789476E-05                    1_GWF-(1,14867)
        335          7         35 -2.44172339E-04                    1_GWF-(1,26175)  4.18556410E-05                    1_GWF-(1,14868)
        336          7         36  2.53847226E-04                    1_GWF-(1,26218)  2.47485975E-05                    1_GWF-(1,14869)
        337          7         37 -1.68798053E-04                    1_GWF-(1,26672)  2.63727694E-05                    1_GWF-(1,14868)
        338          7         38 -2.38733030E-04                    1_GWF-(1,26586)  1.91815025E-05                    1_GWF-(1,14782)
        339          7         39 -2.40375142E-04                    1_GWF-(1,26587)  3.78551216E-05                    1_GWF-(1,14867)
        340          7         40 -2.40431393E-04                    1_GWF-(1,26663) -4.45975651E-05                    1_GWF-(1,14867)
        341          7         41  3.00243314E-04                    1_GWF-(1,26666)  5.35467183E-05                    1_GWF-(1,14867)
        342          7         42  3.90393641E-04                    1_GWF-(1,26665)  3.00651933E-05                    1_GWF-(1,14782)
        343          7         43 -4.18774493E-04                    1_GWF-(1,26665)  1.01689763E-05                    1_GWF-(1,14869)
        344          7         44  3.14692049E-04                    1_GWF-(1,26622)  2.99339072E-05                    1_GWF-(1,14867)
        345          7         45  2.56462874E-04                    1_GWF-(1,26666) -4.03678420E-05                    1_GWF-(1,14867)
        346          7         46  2.45938431E-04                    1_GWF-(1,26665)  5.49831456E-05                    1_GWF-(1,14867)
        347          7         47  2.45916344E-04                    1_GWF-(1,26218) -5.27845878E-05                    1_GWF-(1,14867)
        348          7         48  2.83799204E-04                    1_GWF-(1,26217)  5.52759183E-05                    1_GWF-(1,14867)
        349          7         49  2.17561978E-04                    1_GWF-(1,26218) -3.88799857E-05                    1_GWF-(1,14867)
        350          7         50  2.30093470E-04                    1_GWF-(1,11932)  5.13555364E-05                    1_GWF-(1,14867)
        351          8          1 -2.28900714E-04                    1_GWF-(1,11932) -3.69232340E-05                    1_GWF-(1,14867)
        352          8          2 -1.80258513E-04                    1_GWF-(1,26218)  4.67254461E-05                    1_GWF-(1,14867)
        353          8          3 -2.32183932E-04                    1_GWF-(1,26217) -4.16278574E-05                    1_GWF-(1,14867)
        354          8          4 -2.17193157E-04                    1_GWF-(1,26218)  4.21165987E-05                    1_GWF-(1,14867)
        355          8          5 -1.66642116E-04                    1_GWF-(1,26422) -2.92736568E-05                    1_GWF-(1,14867)
        356          8          6 -1.60651502E-04                    1_GWF-(1,26666)  2.09378775E-05                    1_GWF-(1,14867)
        357          8          7 -2.26164103E-04                    1_GWF-(1,26665)  5.52833822E-06                    1_GWF-(1,14869)
        358          8          8  2.12770756E-04                    1_GWF-(1,26665)  1.48188512E-05                    1_GWF-(1,14782)
        359          8          9 -2.09645192E-04                    1_GWF-(1,26665)  2.55027188E-05                    1_GWF-(1,14867)
        360          8         10  1.61676050E-04                    1_GWF-(1,26665) -1.92772150E-05                    1_GWF-(1,14867)
        361          8         11  1.26089927E-04                    1_GWF-(1,26543)  1.08620847E-05                    1_GWF-(1,14867)
        362          8         12  1.86406883E-04                    1_GWF-(1,26623)  4.28312173E-06                    1_GWF-(1,14869)
        363          8         13  1.80032536E-04                    1_GWF-(1,26622)  9.14212817E-06                    1_GWF-(1,14782)
        364          8         14  1.53059351E-04                    1_GWF-(1,26623)  1.25564527E-05                    1_GWF-(1,14867)
        365          8         15  1.52318560E-04                    1_GWF-(1,26622)  7.49277560E-06                    1_GWF-(1,14782)
        366          8         16  9.14049635E-05                    1_GWF-(1,26649)  8.28730494E-06                    1_GWF-(1,14868)
        367          8         17  7.74491434E-05                    1_GWF-(1,24679)  6.76383882E-06                    1_GWF-(1,14869)
        368          8         18  7.04612795E-05                    1_GWF-(1,24671)  9.07853409E-06                    1_GWF-(1,14868)
        369          8         19  6.88987279E-05                    1_GWF-(1,24683)  1.11292243E-05                    1_GWF-(1,14867)
        370          8         20 -8.05715350E-05                    1_GWF-(1,26486)  1.23855498E-05                    1_GWF-(1,14868)
        371          8         21 -1.13443036E-04                    1_GWF-(1,26487)  1.02054444E-05                    1_GWF-(1,14867)
        372          8         22 -1.41734084E-04                    1_GWF-(1,26486)  2.94899939E-06                    1_GWF-(1,14867)
        373          8         23 -1.13341627E-04                    1_GWF-(1,26487)  9.36215257E-06                    1_GWF-(1,14868)
        374          8         24 -8.02591146E-05                    1_GWF-(1,26420)  1.49466507E-05                    1_GWF-(1,14867)
        375          8         25 -8.16614693E-05                    1_GWF-(1,26218)  1.53503102E-05                    1_GWF-(1,14868)
        376          8         26 -6.76273762E-05                    1_GWF-(1,26217)  1.71694134E-05                    1_GWF-(1,14867)
        377          8         27 -6.38280369E-05                    1_GWF-(1,26421)  2.03292329E-05                    1_GWF-(1,14868)
        378          8         28  8.75350784E-05                    1_GWF-(1,26588) -1.76162203E-05                    1_GWF-(1,14868)
        379          8         29  7.17632944E-05                    1_GWF-(1,26589)  1.47663338E-05                    1_GWF-(1,14868)
        380          8         30 -7.80106677E-05                    1_GWF-(1,26589)  3.98029804E-06                    1_GWF-(1,14869)
        381          8         31 -1.06217367E-04                    1_GWF-(1,26588)  1.08559390E-05                    1_GWF-(1,14867)
        382          8         32  8.56524887E-05                    1_GWF-(1,26420)  1.58975757E-05                    1_GWF-(1,14868)
        383          8         33  8.00416536E-05                    1_GWF-(1,26421)  1.43153442E-05                    1_GWF-(1,14869)
        384          8         34  6.64771351E-05                    1_GWF-(1,26350)  1.73557373E-05                    1_GWF-(1,14868)
        385          8         35  6.61872868E-05                    1_GWF-(1,26422) -1.12091775E-05                    1_GWF-(1,14868)
        386          8         36 -6.43302264E-05                    1_GWF-(1,26422)  1.11139590E-05                    1_GWF-(1,14868)
        387          8         37 -8.58121311E-05                    1_GWF-(1,26350)  8.14756413E-06                    1_GWF-(1,14782)
        388          8         38 -7.94429068E-05                    1_GWF-(1,26422)  1.13614906E-05                    1_GWF-(1,14867)
        389          8         39 -5.00304293E-05                    1_GWF-(1,26350)  8.53817725E-06                    1_GWF-(1,14782)
        390          8         40 -4.21090378E-05                    1_GWF-(1,26422)  8.79979681E-06                    1_GWF-(1,14867)
        391          8         41 -3.93075283E-05                    1_GWF-(1,26350)  1.17477623E-05                    1_GWF-(1,14868)
        392          8         42 -2.64925942E-05                    1_GWF-(1,26422) -1.28868240E-05                    1_GWF-(1,14868)
        393          8         43  4.11095149E-05                    1_GWF-(1,26422)  1.74948280E-05                    1_GWF-(1,14868)
        394          8         44  4.17813091E-05                    1_GWF-(1,26350) -1.57327183E-05                    1_GWF-(1,14868)
        395          8         45  2.05984384E-05                    1_GWF-(1,26421)  1.60220057E-05                    1_GWF-(1,14868)
        396          8         46  2.74401447E-05                    1_GWF-(1,26420) -1.16327618E-05                    1_GWF-(1,14868)
        397          8         47  3.52559804E-05                    1_GWF-(1,26649)  3.38869989E-06                    1_GWF-(1,14867)
        398          8         48  4.25340484E-05                    1_GWF-(1,26622)  6.90232330E-06                    1_GWF-(1,14868)
        399          8         49 -4.33241388E-05                    1_GWF-(1,26486) -1.24921672E-05                    1_GWF-(1,14868)
        400          8         50  2.45148373E-05                    1_GWF-(1,26622)  1.33432330E-05                    1_GWF-(1,14868)
        401          9          1  2.74927495E-05                    1_GWF-(1,26544) -2.02009639E-05                    1_GWF-(1,14868)
        402          9          2  4.41015071E-05                    1_GWF-(1,26486)  1.09395323E-05                    1_GWF-(1,14868)
        403          9          3 -3.40539735E-05                    1_GWF-(1,26622)  1.67026710E-06                    1_GWF-(1,14867)
        404          9          4 -3.44874100E-05                    1_GWF-(1,26623) -1.08763047E-05                    1_GWF-(1,14868)
        405          9          5 -2.75988911E-05                    1_GWF-(1,26622)  1.34155614E-05                    1_GWF-(1,14868)
        406          9          6 -2.13381005E-05                    1_GWF-(1,26588) -1.16722161E-05                    1_GWF-(1,14868)
        407          9          7 -2.70618199E-05                    1_GWF-(1,26350)  1.31944828E-05                    1_GWF-(1,14868)
        408          9          8 -3.27812299E-05                    1_GWF-(1,26422) -1.11061939E-05                    1_GWF-(1,14868)
        409          9          9 -2.12991250E-05                    1_GWF-(1,26350)  1.10776275E-05                    1_GWF-(1,14868)
        410          9         10  2.16826880E-05                    1_GWF-(1,26350)  6.94116986E-06                    1_GWF-(1,14869)
        411          9         11  2.70347248E-05                    1_GWF-(1,26486)  5.31484648E-06                    1_GWF-(1,14782)
        412          9         12  2.95198700E-05                    1_GWF-(1,26544)  7.00178027E-06                    1_GWF-(1,14867)
        413          9         13  4.27820422E-05                    1_GWF-(1,26422)  5.31088032E-06                    1_GWF-(1,14782)
        414          9         14  4.84692938E-05                    1_GWF-(1,26350)  5.68396603E-06                    1_GWF-(1,14868)
        415          9         15 -3.26580393E-05                    1_GWF-(1,26544) -5.19084367E-06                    1_GWF-(1,14868)
        416          9         16 -3.69675606E-05                    1_GWF-(1,26486)  5.87114500E-06                    1_GWF-(1,14868)
        417          9         17 -3.66213561E-05                    1_GWF-(1,26622)  5.47507726E-06                    1_GWF-(1,14867)
        418          9         18 -4.32087188E-05                    1_GWF-(1,26420)  4.15383306E-06                    1_GWF-(1,14782)
        419          9         19 -5.61716363E-05                    1_GWF-(1,26422)  8.13648035E-06                    1_GWF-(1,14868)
        420          9         20 -5.33599282E-05                    1_GWF-(1,26350) -8.19401818E-06                    1_GWF-(1,14868)
        421          9         21 -3.80226823E-05                    1_GWF-(1,26422)  9.46095703E-06                    1_GWF-(1,14868)
        422          9         22 -3.37340212E-05                    1_GWF-(1,26420) -7.54693619E-06                    1_GWF-(1,14868)
        423          9         23  3.05670059E-05                    1_GWF-(1,26420)  6.29924002E-06                    1_GWF-(1,14868)
        424          9         24  3.05993932E-05                    1_GWF-(1,26487)  4.74097379E-06                    1_GWF-(1,14867)
        425          9         25  2.99385986E-05                    1_GWF-(1,26588)  1.67874593E-06                    1_GWF-(1,14782)
        426          9         26  2.91089000E-05                    1_GWF-(1,26543)  4.46640567E-06                    1_GWF-(1,14868)
        427          9         27  2.87774726E-05                    1_GWF-(1,26588) -5.11015815E-06                    1_GWF-(1,14868)
        428          9         28 -2.64257958E-05                    1_GWF-(1,26588)  5.90035312E-06                    1_GWF-(1,14868)
        429          9         29  2.30815262E-05                    1_GWF-(1,26588)  5.15513468E-06                    1_GWF-(1,14867)
        430          9         30  2.82050161E-05                    1_GWF-(1,26665)  2.70067171E-06                    1_GWF-(1,14782)
        431          9         31  3.31734139E-05                    1_GWF-(1,26666)  1.49912169E-06                    1_GWF-(1,14868)
        432          9         32  4.12162467E-05                    1_GWF-(1,26665) -3.04728933E-06                    1_GWF-(1,14868)
        433          9         33  2.91166125E-05                    1_GWF-(1,26666)  4.36650324E-06                    1_GWF-(1,14868)
        434          9         34  1.90279470E-05                    1_GWF-(1,26665)  4.49062274E-06                    1_GWF-(1,14867)
        435          9         35 -2.64848681E-05                    1_GWF-(1,26665)  3.57567488E-06                    1_GWF-(1,14868)
        436          9         36 -2.00317798E-05                    1_GWF-(1,26622)  2.29384574E-06                    1_GWF-(1,14867)
        437          9         37 -2.40886688E-05                    1_GWF-(1,26623)  1.08060757E-06                    1_GWF-(1,14868)
        438          9         38 -2.58109568E-05                    1_GWF-(1,26589)  1.67325704E-06                    1_GWF-(1,14782)
        439          9         39 -2.98574827E-05                    1_GWF-(1,26588)  2.35561596E-06                    1_GWF-(1,14867)
        440          9         40 -2.32154538E-05                    1_GWF-(1,26622)  2.16477845E-06                    1_GWF-(1,14868)
        441          9         41 -1.38030859E-05                    1_GWF-(1,26487)  1.55735622E-06                    1_GWF-(1,14869)
        442          9         42 -1.86012205E-05                    1_GWF-(1,26218)  1.80510356E-06                    1_GWF-(1,14868)
        443          9         43 -1.88532737E-05                    1_GWF-(1,26217)  1.55963537E-06                    1_GWF-(1,14782)
        444          9         44  1.52225093E-05                    1_GWF-(1,26544)  2.63641149E-06                    1_GWF-(1,14867)
        445          9         45  1.35563421E-05                    1_GWF-(1,26218) -2.74289855E-06                    1_GWF-(1,14867)
        446          9         46  1.50500460E-05                    1_GWF-(1,26422)  3.82454356E-06                    1_GWF-(1,14867)
        447          9         47  1.73094548E-05                    1_GWF-(1,26218) -3.45985203E-06                    1_GWF-(1,14867)
        448          9         48  1.99728015E-05                    1_GWF-(1,26217)  3.86966116E-06                    1_GWF-(1,14867)
        449          9         49  1.63879110E-05                    1_GWF-(1,26218) -2.99711203E-06                    1_GWF-(1,14867)
        450          9         50  1.20093083E-05                    1_GWF-(1,11932)  3.74236312E-06                    1_GWF-(1,14867)
        451         10          1 -1.23299752E-05                    1_GWF-(1,11932) -3.16730762E-06                    1_GWF-(1,14867)
        452         10          2 -1.41208570E-05                    1_GWF-(1,26218)  3.58178917E-06                    1_GWF-(1,14867)
        453         10          3 -1.64062274E-05                    1_GWF-(1,26217) -2.41704174E-06                    1_GWF-(1,14867)
        454         10          4 -1.23669534E-05                    1_GWF-(1,26487)  1.58985186E-06                    1_GWF-(1,14867)
        455         10          5 -1.67861571E-05                    1_GWF-(1,26420)  7.43823519E-07                    1_GWF-(1,14867)
        456         10          6 -1.91039052E-05                    1_GWF-(1,26487) -1.77312472E-06                    1_GWF-(1,14867)
        457         10          7 -1.75958698E-05                    1_GWF-(1,26486)  2.56051997E-06                    1_GWF-(1,14867)
        458         10          8  1.11645438E-05                    1_GWF-(1,26218) -2.04456571E-06                    1_GWF-(1,14867)
        459         10          9  1.18692504E-05                    1_GWF-(1,26217)  1.83798249E-06                    1_GWF-(1,14867)
        460         10         10  9.69120332E-06                    1_GWF-(1,26486) -9.77286532E-07                    1_GWF-(1,14867)
        461         10         11  6.63241816E-06                    1_GWF-(1,26487)  5.66959730E-07                    1_GWF-(1,14868)
        462         10         12  7.68318218E-06                    1_GWF-(1,26588)  5.14613345E-07                    1_GWF-(1,14869)
        463         10         13  8.62224347E-06                    1_GWF-(1,26589)  6.55721986E-07                    1_GWF-(1,14868)
        464         10         14  8.62526977E-06                    1_GWF-(1,26588)  7.78435090E-07                    1_GWF-(1,14867)
        465         10         15  9.90930197E-06                    1_GWF-(1,26649)  4.37492684E-07                    1_GWF-(1,14782)
        466         10         16  7.68364168E-06                    1_GWF-(1,26486)  5.41738755E-07                    1_GWF-(1,14868)
        467         10         17 -6.67371232E-06                    1_GWF-(1,26622)  6.03069605E-07                    1_GWF-(1,14867)
        468         10         18 -6.74866270E-06                    1_GWF-(1,26623)  7.01280490E-07                    1_GWF-(1,14868)
        469         10         19  7.28350064E-06                    1_GWF-(1,26623)  6.79773324E-07                    1_GWF-(1,14867)
        470         10         20 -1.01635801E-05                    1_GWF-(1,26588)  1.70196198E-07                    1_GWF-(1,14782)
        471         10         21 -9.53304708E-06                    1_GWF-(1,26543)  5.81229660E-07                    1_GWF-(1,14868)
        472         10         22 -7.60401677E-06                    1_GWF-(1,26588)  1.00039863E-06                    1_GWF-(1,14867)
        473         10         23 -5.26512127E-06                    1_GWF-(1,26543)  9.87575404E-07                    1_GWF-(1,14868)
        474         10         24 -4.74403346E-06                    1_GWF-(1,26420)  1.02885826E-06                    1_GWF-(1,14867)
        475         10         25  5.56271723E-06                    1_GWF-(1,26665)  8.41560854E-07                    1_GWF-(1,14868)
        476         10         26 -5.67934489E-06                    1_GWF-(1,26350)  4.00658452E-07                    1_GWF-(1,14869)
        477         10         27 -5.76117534E-06                    1_GWF-(1,26666)  5.39326379E-07                    1_GWF-(1,14867)
        478         10         28 -5.72819148E-06                    1_GWF-(1,26665)  8.60959931E-07                    1_GWF-(1,14782)
        479         10         29  4.13910235E-06                    1_GWF-(1,26588)  1.14011507E-06                    1_GWF-(1,14867)
        480         10         30  3.99324298E-06                    1_GWF-(1,26666)  1.27936409E-06                    1_GWF-(1,14868)
        481         10         31  5.37753865E-06                    1_GWF-(1,26486) -1.20110058E-06                    1_GWF-(1,14868)
        482         10         32  5.12730992E-06                    1_GWF-(1,26350)  1.49153628E-06                    1_GWF-(1,14868)
        483         10         33  5.20266691E-06                    1_GWF-(1,26422)  1.09194664E-06                    1_GWF-(1,14869)
        484         10         34  4.33468359E-06                    1_GWF-(1,26350)  1.25773068E-06                    1_GWF-(1,14868)
        485         10         35  4.12244728E-06                    1_GWF-(1,26422) -8.05869649E-07                    1_GWF-(1,14868)
        486         10         36 -4.30034252E-06                    1_GWF-(1,26422)  7.30796402E-07                    1_GWF-(1,14868)
        487         10         37 -5.40461419E-06                    1_GWF-(1,26350)  5.35341712E-07                    1_GWF-(1,14782)
        488         10         38 -4.80534809E-06                    1_GWF-(1,26486)  5.52874603E-07                    1_GWF-(1,14867)
        489         10         39 -5.26552581E-06                    1_GWF-(1,26487)  5.97223671E-07                    1_GWF-(1,14868)
        490         10         40 -4.62366942E-06                    1_GWF-(1,26486)  3.92653753E-07                    1_GWF-(1,14869)
        491         10         41 -3.63197469E-06                    1_GWF-(1,26422)  5.65743018E-07                    1_GWF-(1,14867)
        492         10         42 -2.75966153E-06                    1_GWF-(1,26350)  4.90889648E-07                    1_GWF-(1,14782)
        493         10         43  3.40168386E-06                    1_GWF-(1,26350)  5.26412986E-07                    1_GWF-(1,14867)
        494         10         44  3.75584648E-06                    1_GWF-(1,26422)  7.82030150E-07                    1_GWF-(1,14868)
        495         10         45 -2.36149168E-06                    1_GWF-(1,26623) -6.29935342E-07                    1_GWF-(1,14868)
        496         10         46 -2.95059779E-06                    1_GWF-(1,26622)  4.40498361E-07                    1_GWF-(1,14868)
        497         10         47  4.09810822E-06                    1_GWF-(1,26622) -2.93394723E-07                    1_GWF-(1,14867)
        498         10         48  4.02297208E-06                    1_GWF-(1,26649) -5.17238386E-07                    1_GWF-(1,14868)
        499         10         49  2.64129002E-06                    1_GWF-(1,26622)  7.35704599E-07                    1_GWF-(1,14868)
        500         10         50  1.93607858E-06                    1_GWF-(1,26623) -8.68153429E-07                    1_GWF-(1,14868)
        501         11          1  1.80584502E-06                    1_GWF-(1,26421)  1.63196924E-06                    1_GWF-(1,14868)
        502         11          2  2.78733093E-06                    1_GWF-(1,26420) -7.83981722E-07                    1_GWF-(1,14868)
        503         11          3 -2.71429450E-06                    1_GWF-(1,26588)  1.52885752E-07                    1_GWF-(1,14868)
        504         11          4 -2.72382268E-06                    1_GWF-(1,26622)  4.98352555E-07                    1_GWF-(1,14868)
        505         11          5 -2.63113585E-06                    1_GWF-(1,26623) -8.95440928E-07                    1_GWF-(1,14868)
        506         11          6  2.36861154E-06                    1_GWF-(1,26623)  1.15279969E-06                    1_GWF-(1,14868)
        507         11          7 -2.25380552E-06                    1_GWF-(1,26422) -5.74965882E-07                    1_GWF-(1,14868)
        508         11          8 -2.41341018E-06                    1_GWF-(1,26420)  1.53429941E-07                    1_GWF-(1,14782)
        509         11          9  2.43222514E-06                    1_GWF-(1,26648)  6.32006812E-07                    1_GWF-(1,14868)
        510         11         10  2.41065748E-06                    1_GWF-(1,26649) -6.38901470E-07                    1_GWF-(1,14868)
        511         11         11  2.66653312E-06                    1_GWF-(1,26486)  5.89197248E-07                    1_GWF-(1,14868)
        512         11         12  2.61670356E-06                    1_GWF-(1,26487)  2.68882735E-07                    1_GWF-(1,14869)
        513         11         13  2.66461572E-06                    1_GWF-(1,26486)  3.11740018E-07                    1_GWF-(1,14782)
        514         11         14 -3.29856529E-06                    1_GWF-(1,26486)  4.12230352E-07                    1_GWF-(1,14867)
        515         11         15 -2.74240743E-06                    1_GWF-(1,26544)  2.85358756E-07                    1_GWF-(1,14869)
        516         11         16 -2.80233295E-06                    1_GWF-(1,26543)  2.97103497E-07                    1_GWF-(1,14868)
        517         11         17 -2.70733857E-06                    1_GWF-(1,26588)  4.86984117E-07                    1_GWF-(1,14867)
        518         11         18 -2.75954894E-06                    1_GWF-(1,26350)  4.74127230E-07                    1_GWF-(1,14782)
        519         11         19 -3.92819112E-06                    1_GWF-(1,26422)  5.03608336E-07                    1_GWF-(1,14867)
        520         11         20 -4.08450580E-06                    1_GWF-(1,26350) -4.70142806E-07                    1_GWF-(1,14868)
        521         11         21 -2.96372159E-06                    1_GWF-(1,26422)  5.92355806E-07                    1_GWF-(1,14868)
        522         11         22 -1.94665617E-06                    1_GWF-(1,26420) -4.98181311E-07                    1_GWF-(1,14868)
        523         11         23  2.46871055E-06                    1_GWF-(1,26665)  4.74801467E-07                    1_GWF-(1,14868)
        524         11         24  2.37686831E-06                    1_GWF-(1,26666)  3.90427347E-07                    1_GWF-(1,14867)
        525         11         25  2.03319915E-06                    1_GWF-(1,26665)  2.61573107E-07                    1_GWF-(1,14782)
        526         11         26 -2.23832059E-06                    1_GWF-(1,26665)  2.52088241E-07                    1_GWF-(1,14868)
        527         11         27 -2.06612137E-06                    1_GWF-(1,26666) -3.63306647E-07                    1_GWF-(1,14868)
        528         11         28 -1.86614122E-06                    1_GWF-(1,26665)  5.14958691E-07                    1_GWF-(1,14868)
        529         11         29 -1.24645780E-06                    1_GWF-(1,26663) -4.55095049E-07                    1_GWF-(1,14868)
        530         11         30 -1.22575251E-06                    1_GWF-(1,24644)  4.47313875E-07                    1_GWF-(1,14868)
        531         11         31  1.50512599E-06                    1_GWF-(1,26588)  3.74165342E-07                    1_GWF-(1,14867)
        532         11         32  1.16652654E-06                    1_GWF-(1,26589) -2.15694500E-07                    1_GWF-(1,14867)
        533         11         33 -1.49208384E-06                    1_GWF-(1,26420)  5.27594322E-08                    1_GWF-(1,10872)
        534         11         34 -1.81971668E-06                    1_GWF-(1,26487)  2.13154077E-07                    1_GWF-(1,14867)
        535         11         35 -2.16370359E-06                    1_GWF-(1,26486)  2.65695096E-07                    1_GWF-(1,14782)
        536         11         36 -1.65821861E-06                    1_GWF-(1,26649)  2.63933071E-07                    1_GWF-(1,14867)
        537         11         37 -1.18687305E-06                    1_GWF-(1,26622)  1.76481966E-07                    1_GWF-(1,14868)
        538         11         38 -1.04069204E-06                    1_GWF-(1,26580)  1.35270009E-07                    1_GWF-(1,14867)
        539         11         39 -1.33989253E-06                    1_GWF-(1,26588)  8.43447201E-08                    1_GWF-(1,14868)
        540         11         40 -1.73910901E-06                    1_GWF-(1,26649)  5.81627730E-08                    1_GWF-(1,14782)
        541         11         41  1.72412490E-06                    1_GWF-(1,26649)  1.32697563E-07                    1_GWF-(1,14867)
        542         11         42  1.97345591E-06                    1_GWF-(1,26622)  1.24661525E-07                    1_GWF-(1,14868)
        543         11         43  1.65948780E-06                    1_GWF-(1,26649)  7.92330480E-08                    1_GWF-(1,14869)
        544         11         44  1.24290802E-06                    1_GWF-(1,26622)  7.35293766E-08                    1_GWF-(1,14867)
        545         11         45  1.51414498E-06                    1_GWF-(1,26486)  8.85325853E-08                    1_GWF-(1,14782)
        546         11         46  1.59077815E-06                    1_GWF-(1,26487)  1.08291314E-07                    1_GWF-(1,14867)
        547         11         47  1.43355039E-06                    1_GWF-(1,26420)  5.70904367E-08                    1_GWF-(1,14868)
        548         11         48 -1.04126221E-06                    1_GWF-(1,26588)  5.13927100E-08                    1_GWF-(1,14782)
        549         11         49  1.03527846E-06                    1_GWF-(1,26217)  1.11891572E-07                    1_GWF-(1,14867)
        550         11         50  7.39476352E-07                    1_GWF-(1,26218)  1.19641281E-07                    1_GWF-(1,14782)
        551         12          1 -7.70237654E-07                    1_GWF-(1,26218)  2.23392801E-07                    1_GWF-(1,14867)
 --------------------------------------------------------------------------------------------------------------------------------------



 MEMORY MANAGER TOTAL STORAGE BY DATA TYPE, IN MEGABYTES
 -------------------------------
                    ALLOCATED   
 DATA TYPE           MEMORY     
 -------------------------------
 Character        4.66090000E-02
 Logical          4.40000000E-05
 Integer          5.2037920     
 Real             11.901376     
 -------------------------------
 Total            17.151821     
 -------------------------------


 
 Run end date and time (yyyy/mm/dd hh:mm:ss): 2022/05/27 18:31:07
 Elapsed run time:  0.592 Seconds
 Normal termination of simulation.
