                                   MODFLOW 6
                U.S. GEOLOGICAL SURVEY MODULAR HYDROLOGIC MODEL
                            VERSION 6.2.2 07/30/2021

   MODFLOW 6 compiled Jul 31 2021 14:22:53 with IFORT compiler (ver. 19.10.3)

This software has been approved for release by the U.S. Geological 
Survey (USGS). Although the software has been subjected to rigorous 
review, the USGS reserves the right to update the software as needed 
pursuant to further analysis and review. No warranty, expressed or 
implied, is made by the USGS or the U.S. Government as to the 
functionality of the software and related material nor shall the 
fact of release constitute any such warranty. Furthermore, the 
software is released on condition that neither the USGS nor the U.S. 
Government shall be held liable for any damages resulting from its 
authorized or unauthorized use. Also refer to the USGS Water 
Resources Software User Rights Notice for complete use, copyright, 
and distribution information.


System command used to initiate simulation:
mf6

MODFLOW was compiled using uniform precision.

Real Variables
  KIND: 8
  TINY (smallest non-zero value):    2.225074-308
  HUGE (largest value):    1.797693+308
  PRECISION: 15
  BIT SIZE: 64

Integer Variables
  KIND: 4
  HUGE (largest value): 2147483647
  BIT SIZE: 32

Long Integer Variables
  KIND: 8
  HUGE (largest value): 9223372036854775807
  BIT SIZE: 64

Logical Variables
  KIND: 4
  BIT SIZE: 32
 

 OPENED mfsim.nam
 FILE TYPE:NAM   UNIT 1001   STATUS:OLD                 
 FORMAT:FORMATTED              ACCESS:SEQUENTIAL          
 ACTION:READ                

 # File generated by Flopy version 3.3.5 on 04/25/2022 at 00:15:06.

 READING SIMULATION OPTIONS
 END OF SIMULATION OPTIONS

 READING SIMULATION TIMING

 OPENED mfsim.tdis
 FILE TYPE:TDIS   UNIT 1002   STATUS:OLD                 
 FORMAT:FORMATTED              ACCESS:SEQUENTIAL          
 ACTION:READ                


 TDIS -- TEMPORAL DISCRETIZATION PACKAGE,
 VERSION 1 : 11/13/2014 - INPUT READ FROM UNIT 1002
 # File generated by Flopy version 3.3.5 on 04/25/2022 at 00:15:06.
 PROCESSING TDIS OPTIONS
    SIMULATION TIME UNIT IS SECONDS
 END OF TDIS OPTIONS
 PROCESSING TDIS DIMENSIONS
    1 STRESS PERIOD(S) IN SIMULATION
 END OF TDIS DIMENSIONS
 PROCESSING TDIS PERIODDATA


 STRESS PERIOD     LENGTH       TIME STEPS     MULTIPLIER FOR DELT
 ----------------------------------------------------------------------------
        1         1.000000          1                    1.000
 END OF TDIS PERIODDATA
 END OF SIMULATION TIMING

 READING SIMULATION MODELS
    GWF6 model ML will be created as model 1
 END OF SIMULATION MODELS

 READING SIMULATION EXCHANGES
 END OF SIMULATION EXCHANGES

 READING SOLUTIONGROUP

 Creating solution: SLN_1           

 OPENED mfsim.ims
 FILE TYPE:IMS   UNIT 1015   STATUS:OLD                 
 FORMAT:FORMATTED              ACCESS:SEQUENTIAL          
 ACTION:READ                

 END OF SIMULATION SOLUTIONGROUP

 IMS -- ITERATIVE MODEL SOLUTION PACKAGE, VERSION 6, 4/28/2017
         INPUT READ FROM UNIT 1015
 # File generated by Flopy version 3.3.5 on 04/25/2022 at 00:15:06.

 PROCESSING IMS OPTIONS
 END OF IMS OPTIONS

 PROCESSING IMS NONLINEAR
 END OF IMS NONLINEAR DATA
 ***UNDER-RELAXATION WILL NOT BE USED***
 
 ***IMS LINEAR SOLVER WILL BE USED***

 IMSLINEAR -- UNSTRUCTURED LINEAR SOLUTION PACKAGE, VERSION 8, 04/28/2017

 PROCESSING LINEAR DATA
 END OF LINEAR DATA
 
 OUTER ITERATION CONVERGENCE CRITERION    (DVCLOSE) =    0.100000E-04
 MAXIMUM NUMBER OF OUTER ITERATIONS        (MXITER) = 100
 SOLVER PRINTOUT INDEX                     (IPRIMS) = 2
 NONLINEAR ITERATION METHOD            (NONLINMETH) = 0
 LINEAR SOLUTION METHOD                   (LINMETH) = 1

       SOLUTION BY THE        CONJUGATE-GRADIENT       METHOD
 ------------------------------------------------------------------
 MAXIMUM OF 100 CALLS OF SOLUTION ROUTINE
 MAXIMUM OF 50 INTERNAL ITERATIONS PER CALL TO SOLUTION ROUTINE
 LINEAR ACCELERATION METHOD            = CG        
 MATRIX PRECONDITIONING TYPE           = INCOMPLETE LU       
 MATRIX SCALING APPROACH               = NO SCALING          
 MATRIX REORDERING APPROACH            = ORIGINAL ORDERING        
 NUMBER OF ORTHOGONALIZATIONS          = 0
 HEAD CHANGE CRITERION FOR CLOSURE     =    0.10000E-05
 RESIDUAL CHANGE CRITERION FOR CLOSURE =    0.10000E-04
 RESIDUAL CONVERGENCE OPTION           = 1
 RESIDUAL CONVERGENCE NORM             = INFINITY NORM S 
 RELAXATION FACTOR                     =    0.00000E+00



 
    Solving:  Stress period:     1    Time step:     1
 
1
                            STRESS PERIOD NO. 1, LENGTH =   1.000000    
                            -----------------------------------------------
                            NUMBER OF TIME STEPS = 1
                            MULTIPLIER FOR DELT =     1.000
                            INITIAL TIME STEP SIZE =   1.000000    

 SLN_1 OUTER ITERATION SUMMARY
 ----------------------------------------------------------------------------------------------------------
                                OUTER      INNER                    STEP   MAXIMUM CHANGE MODEL-(CELLID) OR
 OUTER ITERATION STEP       ITERATION  ITERATION  MAXIMUM CHANGE SUCCESS             MODEL-PACKAGE-(NUMBER)
 ----------------------------------------------------------------------------------------------------------
 Model                              1         50       610.30021                            1_GWF-(1,26381)
 Model                              2         50      -607.60704                            1_GWF-(1,26381)
 Model                              3         50      -2.4673380                            1_GWF-(1,23178)
 Model                              4         50     -0.57486642                            1_GWF-(1,22353)
 Model                              5         50 -5.45883684E-02                            1_GWF-(1,11378)
 Model                              6         50 -9.78140943E-03                            1_GWF-(1,22365)
 Model                              7         50  1.09083626E-03                            1_GWF-(1,17422)
 Model                              8         50 -4.50391389E-04                            1_GWF-(1,22362)
 Model                              9         50  3.84620172E-05                            1_GWF-(1,24253)
 Model                             10         32 -1.72218945E-05                            1_GWF-(1,22371)
 Model                             11          1  6.79094168E-07       *                    1_GWF-(1,26665)
 ----------------------------------------------------------------------------------------------------------


 11 CALLS TO NUMERICAL SOLUTION IN TIME STEP 1 STRESS PERIOD 1
 483 TOTAL ITERATIONS

 SLN_1 INNER ITERATION SUMMARY
 --------------------------------------------------------------------------------------------------------------------------------------
      TOTAL      OUTER      INNER                                                            MAXIMUM                                   
  ITERATION  ITERATION  ITERATION  MAXIMUM CHANGE      MAXIMUM CHANGE MODEL-(CELLID)        RESIDUAL    MAXIMUM RESIDUAL MODEL-(CELLID)
 --------------------------------------------------------------------------------------------------------------------------------------
          1          1          1       183.02336                    1_GWF-(1,26381)       1.9456592                     1_GWF-(1,7788)
          2          1          2       273.11179                    1_GWF-(1,26380)      -1.1318382                    1_GWF-(1,15907)
          3          1          3       157.64172                    1_GWF-(1,26444)      0.85898186                    1_GWF-(1,15907)
          4          1          4       83.363072                    1_GWF-(1,26380)      0.57202521                    1_GWF-(1,15226)
          5          1          5       66.805899                    1_GWF-(1,26520)     -0.37919432                    1_GWF-(1,15221)
          6          1          6       60.502270                    1_GWF-(1,26572)      0.45985948                    1_GWF-(1,15216)
          7          1          7       62.491882                    1_GWF-(1,26648)      0.40437930                    1_GWF-(1,15226)
          8          1          8       53.638061                    1_GWF-(1,26649)     -0.36385775                    1_GWF-(1,15226)
          9          1          9       39.100344                    1_GWF-(1,26589)      0.33126241                    1_GWF-(1,15221)
         10          1         10       32.653313                    1_GWF-(1,26543)     -0.17081308                    1_GWF-(1,15216)
         11          1         11       24.833589                    1_GWF-(1,26544)     -0.15637928                    1_GWF-(1,15226)
         12          1         12       20.981750                    1_GWF-(1,26420)      0.19811447                    1_GWF-(1,15221)
         13          1         13       18.470798                    1_GWF-(1,26422) -6.95829854E-02                    1_GWF-(1,15216)
         14          1         14       13.349378                    1_GWF-(1,26350) -9.22159811E-02                    1_GWF-(1,15221)
         15          1         15       8.5866558                    1_GWF-(1,26218)  9.94735990E-02                    1_GWF-(1,15221)
         16          1         16      -8.2321520                    1_GWF-(1,26622)  4.53816503E-02                    1_GWF-(1,11047)
         17          1         17      -6.5271930                    1_GWF-(1,26623)     -0.11785561                    1_GWF-(1,15221)
         18          1         18      -6.1600317                    1_GWF-(1,26543)      0.12126751                    1_GWF-(1,15221)
         19          1         19      -6.8382662                    1_GWF-(1,26588)  6.11375210E-02                    1_GWF-(1,11152)
         20          1         20       10.373567                    1_GWF-(1,26588)     -0.10760128                    1_GWF-(1,15221)
         21          1         21      -8.3398914                    1_GWF-(1,26588)  6.71255160E-02                    1_GWF-(1,15221)
         22          1         22      -8.6840845                    1_GWF-(1,26543)  7.43843004E-02                    1_GWF-(1,15910)
         23          1         23      -7.6749681                    1_GWF-(1,26544)     -0.11376022                    1_GWF-(1,15221)
         24          1         24      -11.081365                    1_GWF-(1,26486)  5.13110715E-02                    1_GWF-(1,15221)
         25          1         25      -10.322308                    1_GWF-(1,26487)  8.69106137E-02                    1_GWF-(1,15910)
         26          1         26       10.885904                    1_GWF-(1,26487) -9.03012789E-02                    1_GWF-(1,15221)
         27          1         27       10.595741                    1_GWF-(1,26420) -5.25969173E-02                    1_GWF-(1,11203)
         28          1         28       6.3496864                    1_GWF-(1,26487)  6.37016095E-02                    1_GWF-(1,15910)
         29          1         29       4.5208181                    1_GWF-(1,26542) -5.86064894E-02                    1_GWF-(1,15221)
         30          1         30       5.1605096                    1_GWF-(1,26623) -3.43348098E-02                    1_GWF-(1,11050)
         31          1         31       3.8583498                    1_GWF-(1,26586)  4.61745364E-02                    1_GWF-(1,15910)
         32          1         32       3.8988830                    1_GWF-(1,26422) -5.11828566E-02                    1_GWF-(1,11203)
         33          1         33       4.3620883                    1_GWF-(1,26544) -4.39120919E-02                    1_GWF-(1,11200)
         34          1         34       3.9405151                    1_GWF-(1,26665)  2.86287078E-02                    1_GWF-(1,15910)
         35          1         35       3.4925506                    1_GWF-(1,26350) -2.88534000E-02                    1_GWF-(1,15221)
         36          1         36       3.7856361                    1_GWF-(1,26422) -2.44871232E-02                    1_GWF-(1,11200)
         37          1         37      -2.7355502                    1_GWF-(1,26422) -2.39601701E-02                    1_GWF-(1,11152)
         38          1         38      -3.4785341                    1_GWF-(1,26350) -2.80433286E-02                    1_GWF-(1,15216)
         39          1         39      -2.3534788                    1_GWF-(1,26622) -3.53491326E-02                    1_GWF-(1,11206)
         40          1         40      -2.4181649                    1_GWF-(1,26648)  2.73752117E-02                    1_GWF-(1,11108)
         41          1         41      -1.8682646                    1_GWF-(1,26649)  2.91934211E-02                    1_GWF-(1,11159)
         42          1         42      -1.7092659                    1_GWF-(1,26623)  3.59781741E-02                    1_GWF-(1,11197)
         43          1         43      -1.6223681                    1_GWF-(1,26586) -3.20885687E-02                    1_GWF-(1,11206)
         44          1         44      -1.2312104                    1_GWF-(1,26543)  3.95376713E-02                    1_GWF-(1,11206)
         45          1         45      -1.2169027                    1_GWF-(1,26486)  2.39607359E-02                    1_GWF-(1,11201)
         46          1         46       1.0188165                    1_GWF-(1,26649) -2.11953348E-02                    1_GWF-(1,11201)
         47          1         47       1.1790748                    1_GWF-(1,26648) -2.18528013E-02                    1_GWF-(1,12427)
         48          1         48      -1.5709584                    1_GWF-(1,26218)  2.48082704E-02                    1_GWF-(1,11197)
         49          1         49      -1.6041438                    1_GWF-(1,26217) -1.71520441E-02                    1_GWF-(1,11206)
         50          1         50       1.1478008                    1_GWF-(1,26217)  1.34114639E-02                    1_GWF-(1,11206)
         51          2          1      -609.47640                    1_GWF-(1,26381)      -3.3972185                    1_GWF-(1,26381)
         52          2          2      -219.90277                    1_GWF-(1,26513)       1.1513633                    1_GWF-(1,26381)
         53          2          3      -104.62181                    1_GWF-(1,26440)      0.72234024                    1_GWF-(1,26506)
         54          2          4      -62.879896                    1_GWF-(1,26665)     -0.29508721                    1_GWF-(1,26506)
         55          2          5      -52.694536                    1_GWF-(1,26649)      0.28492333                    1_GWF-(1,26381)
         56          2          6      -45.609178                    1_GWF-(1,26589)     -0.30879908                    1_GWF-(1,26381)
         57          2          7      -41.536213                    1_GWF-(1,26588)     -0.25947838                    1_GWF-(1,26506)
         58          2          8      -32.144922                    1_GWF-(1,26544)      0.13355528                    1_GWF-(1,26506)
         59          2          9      -25.649027                    1_GWF-(1,26487)     -0.11618002                    1_GWF-(1,26381)
         60          2         10      -19.071182                    1_GWF-(1,26421)     -0.12238159                    1_GWF-(1,26506)
         61          2         11      -17.101252                    1_GWF-(1,26348)  5.25296470E-02                    1_GWF-(1,26665)
         62          2         12      -13.066778                    1_GWF-(1,26218) -7.81099576E-02                    1_GWF-(1,26381)
         63          2         13      -7.9509980                    1_GWF-(1,26218) -7.32512667E-02                    1_GWF-(1,26506)
         64          2         14      -6.6359363                    1_GWF-(1,26649)  2.97083402E-02                    1_GWF-(1,26551)
         65          2         15      -8.1081850                    1_GWF-(1,26622) -6.70252652E-02                    1_GWF-(1,26381)
         66          2         16      -8.4500951                    1_GWF-(1,26623) -7.82698214E-02                    1_GWF-(1,26506)
         67          2         17      -7.0805101                    1_GWF-(1,26622)  4.21744304E-02                    1_GWF-(1,26551)
         68          2         18       7.0641485                    1_GWF-(1,26422) -7.94394288E-02                    1_GWF-(1,26381)
         69          2         19       7.0701214                    1_GWF-(1,26588) -7.34697556E-02                    1_GWF-(1,26506)
         70          2         20       9.0296716                    1_GWF-(1,26543) -3.93157594E-02                    1_GWF-(1,26447)
         71          2         21       10.393495                    1_GWF-(1,26588) -9.06996537E-02                    1_GWF-(1,26381)
         72          2         22       10.310750                    1_GWF-(1,26543) -6.94525938E-02                    1_GWF-(1,26506)
         73          2         23       7.3808613                    1_GWF-(1,26542) -5.50558462E-02                    1_GWF-(1,26447)
         74          2         24      -7.9114530                    1_GWF-(1,26487) -9.87896065E-02                    1_GWF-(1,26381)
         75          2         25      -10.290413                    1_GWF-(1,26486) -5.41124494E-02                    1_GWF-(1,26506)
         76          2         26      -11.290107                    1_GWF-(1,26487)  8.01682425E-02                    1_GWF-(1,26381)
         77          2         27      -7.8382173                    1_GWF-(1,26486)      0.10257616                    1_GWF-(1,26506)
         78          2         28      -4.5912484                    1_GWF-(1,26477) -5.02466142E-02                    1_GWF-(1,26506)
         79          2         29      -3.0234886                    1_GWF-(1,26649)  3.78890968E-02                    1_GWF-(1,26381)
         80          2         30       3.1938918                    1_GWF-(1,26420)  6.27504434E-02                    1_GWF-(1,26506)
         81          2         31      -2.7726347                    1_GWF-(1,26663) -4.55158894E-02                    1_GWF-(1,26506)
         82          2         32      -2.9667623                    1_GWF-(1,26421) -2.25322780E-02                    1_GWF-(1,26378)
         83          2         33      -3.7849330                    1_GWF-(1,26350) -4.92697154E-02                    1_GWF-(1,26381)
         84          2         34      -2.8020525                    1_GWF-(1,26422) -5.12398863E-02                    1_GWF-(1,26506)
         85          2         35       3.7882841                    1_GWF-(1,26422) -2.46950661E-02                    1_GWF-(1,26378)
         86          2         36       3.2656795                    1_GWF-(1,26350) -3.49105398E-02                    1_GWF-(1,26381)
         87          2         37      -3.0748594                    1_GWF-(1,26350) -4.56780639E-02                    1_GWF-(1,26506)
         88          2         38       2.8364355                    1_GWF-(1,26350) -2.01005850E-02                    1_GWF-(1,26378)
         89          2         39       3.2999734                    1_GWF-(1,26422) -3.02565027E-02                    1_GWF-(1,26381)
         90          2         40       2.1868035                    1_GWF-(1,26350) -4.32539776E-02                    1_GWF-(1,26506)
         91          2         41       1.3639628                    1_GWF-(1,26217)  2.68199855E-02                    1_GWF-(1,26506)
         92          2         42      0.96718207                    1_GWF-(1,26218)  1.76790718E-02                     1_GWF-(1,9691)
         93          2         43       1.0501141                    1_GWF-(1,26663)  2.71556096E-02                    1_GWF-(1,26381)
         94          2         44     -0.90848553                    1_GWF-(1,26217)  2.79769127E-02                    1_GWF-(1,26506)
         95          2         45     -0.75538139                    1_GWF-(1,26192)  2.32776854E-02                     1_GWF-(1,9692)
         96          2         46     -0.64270801                    1_GWF-(1,26242)  3.84334685E-02                     1_GWF-(1,9691)
         97          2         47     -0.76649126                    1_GWF-(1,26218) -4.01561148E-02                     1_GWF-(1,9691)
         98          2         48      -1.0736825                    1_GWF-(1,26217)  7.15425434E-02                     1_GWF-(1,9691)
         99          2         49      0.73733652                    1_GWF-(1,25377) -8.65806065E-02                     1_GWF-(1,9691)
        100          2         50     -0.70107761                    1_GWF-(1,23037)      0.12363490                     1_GWF-(1,9691)
        101          3          1      0.42675109                    1_GWF-(1,26674) -7.60905696E-02                     1_GWF-(1,9691)
        102          3          2      0.54305682                    1_GWF-(1,22782)      0.12739667                     1_GWF-(1,9691)
        103          3          3      0.67212416                    1_GWF-(1,26217)     -0.11387435                     1_GWF-(1,9691)
        104          3          4      0.66448315                    1_GWF-(1,26218)      0.10681432                     1_GWF-(1,9691)
        105          3          5      0.41277693                    1_GWF-(1,26422) -9.98973895E-02                     1_GWF-(1,9691)
        106          3          6      0.33245589                    1_GWF-(1,26336)      0.11510487                     1_GWF-(1,9691)
        107          3          7      0.41164898                    1_GWF-(1,26194) -8.49839484E-02                     1_GWF-(1,9691)
        108          3          8      0.31070031                    1_GWF-(1,26407)  8.19201859E-02                     1_GWF-(1,9691)
        109          3          9      0.41961599                    1_GWF-(1,13206) -7.04597447E-02                     1_GWF-(1,9691)
        110          3         10      0.41236120                    1_GWF-(1,13192)  7.28101077E-02                     1_GWF-(1,9691)
        111          3         11     -0.46026976                    1_GWF-(1,26543) -5.24017440E-02                     1_GWF-(1,9691)
        112          3         12      0.56684529                    1_GWF-(1,26648)  5.43148322E-02                     1_GWF-(1,9691)
        113          3         13     -0.43051416                    1_GWF-(1,26623) -4.07630139E-02                     1_GWF-(1,9691)
        114          3         14     -0.44614950                    1_GWF-(1,26649)  3.90227485E-02                     1_GWF-(1,9691)
        115          3         15     -0.60879346                    1_GWF-(1,26648)  2.70601775E-02                     1_GWF-(1,9692)
        116          3         16     -0.55098214                    1_GWF-(1,26665)  2.72885038E-02                     1_GWF-(1,9691)
        117          3         17     -0.42645614                    1_GWF-(1,26674)  1.53092970E-02                     1_GWF-(1,9692)
        118          3         18      0.30990802                    1_GWF-(1,26350)  1.23501835E-02                     1_GWF-(1,9691)
        119          3         19      0.42072947                    1_GWF-(1,26663) -7.86031479E-03                    1_GWF-(1,15079)
        120          3         20      0.40217041                    1_GWF-(1,26674)  8.22368817E-03                    1_GWF-(1,16201)
        121          3         21      0.25730206                    1_GWF-(1,26422) -8.33134469E-03                    1_GWF-(1,16201)
        122          3         22      0.43031120                    1_GWF-(1,26350)  6.97861872E-03                     1_GWF-(1,9692)
        123          3         23      0.42992207                    1_GWF-(1,26422)  1.03588897E-02                     1_GWF-(1,9691)
        124          3         24      0.53144800                    1_GWF-(1,26420)  8.71251968E-03                     1_GWF-(1,9692)
        125          3         25      0.46913319                    1_GWF-(1,26422)  9.40294128E-03                     1_GWF-(1,9691)
        126          3         26      0.50646931                    1_GWF-(1,26420)  5.25000022E-03                    1_GWF-(1,16201)
        127          3         27      0.45334620                    1_GWF-(1,26487) -5.53206760E-03                    1_GWF-(1,16201)
        128          3         28     -0.43043245                    1_GWF-(1,26544)  7.97469246E-03                     1_GWF-(1,9691)
        129          3         29     -0.54262447                    1_GWF-(1,26486)  6.47084706E-03                     1_GWF-(1,9692)
        130          3         30     -0.37854814                    1_GWF-(1,26544)  6.21167772E-03                     1_GWF-(1,9691)
        131          3         31     -0.33169101                    1_GWF-(1,26486)  3.67779774E-03                    1_GWF-(1,15083)
        132          3         32     -0.39032079                    1_GWF-(1,26588)  4.75711937E-03                    1_GWF-(1,16201)
        133          3         33      0.38947308                    1_GWF-(1,26588)  4.98659984E-03                     1_GWF-(1,9691)
        134          3         34     -0.42739480                    1_GWF-(1,26588)  4.66384007E-03                     1_GWF-(1,9692)
        135          3         35      0.30136963                    1_GWF-(1,26588)  5.80511704E-03                    1_GWF-(1,16201)
        136          3         36      0.28440563                    1_GWF-(1,26648) -3.28833962E-03                    1_GWF-(1,16201)
        137          3         37      0.40722739                    1_GWF-(1,26649)  2.87883197E-03                    1_GWF-(1,15081)
        138          3         38      0.47246805                    1_GWF-(1,26622)  4.67603448E-03                    1_GWF-(1,16201)
        139          3         39     -0.35468887                    1_GWF-(1,26622)  2.93287551E-03                     1_GWF-(1,9692)
        140          3         40     -0.28766783                    1_GWF-(1,26665) -3.18929426E-03                    1_GWF-(1,16201)
        141          3         41     -0.24845684                    1_GWF-(1,26666)  4.14110686E-03                    1_GWF-(1,16201)
        142          3         42     -0.35785624                    1_GWF-(1,26665)  2.43689316E-03                    1_GWF-(1,11137)
        143          3         43     -0.31790006                    1_GWF-(1,26666) -3.09238250E-03                    1_GWF-(1,16201)
        144          3         44     -0.26413609                    1_GWF-(1,26665)  3.31473331E-03                    1_GWF-(1,16201)
        145          3         45      0.28130566                    1_GWF-(1,26665)  2.49030984E-03                    1_GWF-(1,11053)
        146          3         46      0.23138981                    1_GWF-(1,26666)  2.48335156E-03                    1_GWF-(1,10966)
        147          3         47     -0.17465508                    1_GWF-(1,26543)  3.20072813E-03                    1_GWF-(1,16201)
        148          3         48     -0.16838118                    1_GWF-(1,25794)  2.18897066E-03                    1_GWF-(1,11041)
        149          3         49     -0.20441705                    1_GWF-(1,26623)  2.67661003E-03                    1_GWF-(1,10961)
        150          3         50     -0.16690087                    1_GWF-(1,26586)  2.07881032E-03                    1_GWF-(1,16201)
        151          4          1     -0.24882597                    1_GWF-(1,11428) -6.65170187E-03                    1_GWF-(1,10745)
        152          4          2     -0.21166832                    1_GWF-(1,11421) -5.04109155E-03                    1_GWF-(1,15063)
        153          4          3     -0.17914661                    1_GWF-(1,11401)  2.86147143E-03                    1_GWF-(1,15063)
        154          4          4     -0.16412751                    1_GWF-(1,11404)  2.23239759E-03                    1_GWF-(1,15062)
        155          4          5     -0.13728179                    1_GWF-(1,11316)  2.49846166E-03                    1_GWF-(1,15067)
        156          4          6  9.80010692E-02                    1_GWF-(1,11404)  2.65526202E-03                    1_GWF-(1,15063)
        157          4          7      0.12130630                    1_GWF-(1,11403)  2.46668973E-03                    1_GWF-(1,15062)
        158          4          8      0.10843611                    1_GWF-(1,11318) -2.46387390E-03                    1_GWF-(1,15062)
        159          4          9      0.11202167                    1_GWF-(1,11456) -2.58781173E-03                    1_GWF-(1,15067)
        160          4         10     -0.13789321                    1_GWF-(1,26665) -1.90685571E-03                    1_GWF-(1,15058)
        161          4         11      0.12517506                    1_GWF-(1,26665) -1.78592693E-03                    1_GWF-(1,15062)
        162          4         12 -7.12457942E-02                    1_GWF-(1,26665) -2.08088552E-03                    1_GWF-(1,15067)
        163          4         13 -6.93310704E-02                    1_GWF-(1,26622) -1.52007341E-03                    1_GWF-(1,15058)
        164          4         14  7.77503797E-02                    1_GWF-(1,26622) -8.40772804E-04                    1_GWF-(1,15070)
        165          4         15  6.74434455E-02                    1_GWF-(1,26649)  9.79820441E-04                    1_GWF-(1,15058)
        166          4         16  6.11614741E-02                    1_GWF-(1,26622) -1.10172668E-03                    1_GWF-(1,15058)
        167          4         17 -4.32187964E-02                    1_GWF-(1,26218) -1.19453264E-03                    1_GWF-(1,15079)
        168          4         18 -4.97604859E-02                    1_GWF-(1,26588)  1.34475965E-03                    1_GWF-(1,15069)
        169          4         19 -5.95994798E-02                    1_GWF-(1,26543) -1.07913178E-03                    1_GWF-(1,15058)
        170          4         20 -8.06147248E-02                    1_GWF-(1,26588)  8.99216314E-04                    1_GWF-(1,10961)
        171          4         21 -6.38122784E-02                    1_GWF-(1,26543)  9.56984933E-04                    1_GWF-(1,15069)
        172          4         22 -4.73015333E-02                    1_GWF-(1,26588)  9.64770967E-04                    1_GWF-(1,15080)
        173          4         23 -3.89855366E-02                    1_GWF-(1,26486) -1.08822512E-03                    1_GWF-(1,15079)
        174          4         24  4.91707992E-02                    1_GWF-(1,26486) -1.11381025E-03                    1_GWF-(1,15078)
        175          4         25 -6.14050422E-02                    1_GWF-(1,26486)  7.37192193E-04                    1_GWF-(1,10959)
        176          4         26 -6.01856505E-02                    1_GWF-(1,26487) -1.12212436E-03                    1_GWF-(1,15079)
        177          4         27 -5.46245628E-02                    1_GWF-(1,26420) -1.45311003E-03                    1_GWF-(1,15078)
        178          4         28 -5.34235149E-02                    1_GWF-(1,26422)  1.27728368E-03                    1_GWF-(1,15078)
        179          4         29 -5.17532161E-02                    1_GWF-(1,26350)  1.04041095E-03                    1_GWF-(1,15083)
        180          4         30  4.78446483E-02                    1_GWF-(1,26350)  8.29041406E-04                     1_GWF-(1,5697)
        181          4         31  5.91347925E-02                    1_GWF-(1,26422)  9.45051938E-04                    1_GWF-(1,15078)
        182          4         32  5.08303356E-02                    1_GWF-(1,26350)  9.45754117E-04                    1_GWF-(1,15083)
        183          4         33  4.04701766E-02                    1_GWF-(1,26422) -8.02725812E-04                    1_GWF-(1,15083)
        184          4         34  3.05035676E-02                    1_GWF-(1,26350)  7.18514414E-04                    1_GWF-(1,11149)
        185          4         35 -2.44818301E-02                    1_GWF-(1,11459) -6.29504770E-04                    1_GWF-(1,11041)
        186          4         36 -2.35615875E-02                    1_GWF-(1,11365)  8.56228368E-04                    1_GWF-(1,10653)
        187          4         37 -1.55824222E-02                    1_GWF-(1,26350)  8.32731141E-04                     1_GWF-(1,9692)
        188          4         38  2.84138362E-02                    1_GWF-(1,11454)  1.26996721E-03                     1_GWF-(1,9691)
        189          4         39 -1.69148959E-02                    1_GWF-(1,26217)  1.30411985E-03                     1_GWF-(1,9692)
        190          4         40 -1.76087270E-02                    1_GWF-(1,11380)  2.01317977E-03                     1_GWF-(1,9691)
        191          4         41 -1.35270580E-02                    1_GWF-(1,11460) -1.95363531E-03                     1_GWF-(1,9691)
        192          4         42 -1.18540654E-02                    1_GWF-(1,13230)  2.74054789E-03                     1_GWF-(1,9691)
        193          4         43 -1.34844165E-02                    1_GWF-(1,11369) -2.65563189E-03                     1_GWF-(1,9691)
        194          4         44  1.10643535E-02                    1_GWF-(1,11453)  3.01241252E-03                     1_GWF-(1,9691)
        195          4         45  1.14327579E-02                    1_GWF-(1,26218) -2.92872553E-03                     1_GWF-(1,9691)
        196          4         46  7.22304255E-03                    1_GWF-(1,19108)  3.31306819E-03                     1_GWF-(1,9691)
        197          4         47  7.32880191E-03                    1_GWF-(1,11701) -2.84726673E-03                     1_GWF-(1,9691)
        198          4         48  6.83808409E-03                    1_GWF-(1,11454)  3.20141852E-03                     1_GWF-(1,9691)
        199          4         49 -7.04846038E-03                    1_GWF-(1,26421) -2.59672327E-03                     1_GWF-(1,9691)
        200          4         50 -9.15946993E-03                    1_GWF-(1,26345)  2.72813885E-03                     1_GWF-(1,9691)
        201          5          1 -4.44170620E-02                    1_GWF-(1,11378)  9.84319918E-04                     1_GWF-(1,9692)
        202          5          2 -3.02245579E-02                    1_GWF-(1,11369)  3.12219151E-03                     1_GWF-(1,9691)
        203          5          3 -1.78415978E-02                    1_GWF-(1,11454) -3.24494459E-03                     1_GWF-(1,9691)
        204          5          4  1.91453586E-02                    1_GWF-(1,11378)  2.73650973E-03                     1_GWF-(1,9691)
        205          5          5 -2.04839139E-02                    1_GWF-(1,11372) -2.39517764E-03                     1_GWF-(1,9691)
        206          5          6  1.64466348E-02                    1_GWF-(1,11373)  2.64319469E-03                     1_GWF-(1,9691)
        207          5          7  2.45373456E-02                    1_GWF-(1,11378) -1.97051191E-03                     1_GWF-(1,9691)
        208          5          8  1.91181687E-02                    1_GWF-(1,11368)  1.80971264E-03                     1_GWF-(1,9691)
        209          5          9  1.52755516E-02                    1_GWF-(1,11372) -1.50460798E-03                     1_GWF-(1,9691)
        210          5         10 -1.61720007E-02                    1_GWF-(1,11451)  1.38163933E-03                     1_GWF-(1,9691)
        211          5         11 -2.11125062E-02                    1_GWF-(1,11378)  7.94466069E-04                     1_GWF-(1,9692)
        212          5         12 -1.90493337E-02                    1_GWF-(1,11368)  7.76993442E-04                     1_GWF-(1,9691)
        213          5         13 -1.58721386E-02                    1_GWF-(1,11451)  4.83193893E-04                     1_GWF-(1,9692)
        214          5         14  1.43625397E-02                    1_GWF-(1,11451)  4.78563794E-04                     1_GWF-(1,9691)
        215          5         15  1.40969228E-02                    1_GWF-(1,11452)  2.99532609E-04                    1_GWF-(1,10654)
        216          5         16  1.21052795E-02                    1_GWF-(1,11368)  2.54113228E-04                    1_GWF-(1,10653)
        217          5         17 -8.35232071E-03                    1_GWF-(1,26544)  1.57919097E-04                    1_GWF-(1,10651)
        218          5         18 -1.31714323E-02                    1_GWF-(1,26486)  1.53557025E-04                    1_GWF-(1,11352)
        219          5         19 -1.10439501E-02                    1_GWF-(1,26487)  2.17271385E-04                     1_GWF-(1,9691)
        220          5         20 -9.02961142E-03                    1_GWF-(1,26543) -3.01954721E-04                    1_GWF-(1,10653)
        221          5         21 -8.42028783E-03                    1_GWF-(1,26421)  1.96476222E-04                    1_GWF-(1,11352)
        222          5         22 -8.29902390E-03                    1_GWF-(1,11452) -1.19045838E-04                    1_GWF-(1,10966)
        223          5         23 -7.74018214E-03                    1_GWF-(1,11415)  1.06337540E-04                    1_GWF-(1,11050)
        224          5         24  8.65509632E-03                    1_GWF-(1,26422)  1.48664533E-04                    1_GWF-(1,11352)
        225          5         25  9.38527139E-03                    1_GWF-(1,26350)  1.34613001E-04                    1_GWF-(1,11048)
        226          5         26  9.20192521E-03                    1_GWF-(1,26422)  1.74467898E-04                     1_GWF-(1,9691)
        227          5         27  6.88858320E-03                    1_GWF-(1,26350)  1.24359984E-04                     1_GWF-(1,9692)
        228          5         28  6.02770532E-03                    1_GWF-(1,26486)  9.01661499E-05                     1_GWF-(1,9691)
        229          5         29  6.81427831E-03                    1_GWF-(1,26622) -7.42603641E-05                    1_GWF-(1,10651)
        230          5         30  6.60508596E-03                    1_GWF-(1,26649) -1.36350360E-04                    1_GWF-(1,10650)
        231          5         31 -5.18133385E-03                    1_GWF-(1,26350)  1.62568703E-04                     1_GWF-(1,9691)
        232          5         32 -6.03993503E-03                    1_GWF-(1,26422)  9.69442112E-05                     1_GWF-(1,9692)
        233          5         33 -5.45048027E-03                    1_GWF-(1,26350)  1.04227269E-04                    1_GWF-(1,11352)
        234          5         34 -4.69700640E-03                    1_GWF-(1,26422)  8.43812777E-05                    1_GWF-(1,10966)
        235          5         35 -5.81233500E-03                    1_GWF-(1,26588) -8.53653246E-05                    1_GWF-(1,11351)
        236          5         36 -5.88585949E-03                    1_GWF-(1,26543)  7.51303799E-05                    1_GWF-(1,11352)
        237          5         37 -7.32798670E-03                    1_GWF-(1,26588)  8.12097962E-05                    1_GWF-(1,11351)
        238          5         38 -5.33271536E-03                    1_GWF-(1,26589)  8.87887471E-05                     1_GWF-(1,9691)
        239          5         39 -5.43826351E-03                    1_GWF-(1,26588)  7.97284698E-05                    1_GWF-(1,11352)
        240          5         40 -5.39075457E-03                    1_GWF-(1,26665)  9.83964370E-05                    1_GWF-(1,11351)
        241          5         41  6.39956624E-03                    1_GWF-(1,26665)  1.15383837E-04                    1_GWF-(1,10653)
        242          5         42  6.45886688E-03                    1_GWF-(1,26666)  9.55189985E-05                    1_GWF-(1,10651)
        243          5         43  6.32400743E-03                    1_GWF-(1,26665)  9.07683065E-05                    1_GWF-(1,11351)
        244          5         44 -3.85236676E-03                    1_GWF-(1,26674)  9.09059343E-05                    1_GWF-(1,10653)
        245          5         45 -2.75352092E-03                    1_GWF-(1,26663)  1.04241237E-04                    1_GWF-(1,10654)
        246          5         46  3.01550211E-03                    1_GWF-(1,11305)  9.44525992E-05                    1_GWF-(1,10653)
        247          5         47  2.61394583E-03                    1_GWF-(1,11404) -1.07144667E-04                    1_GWF-(1,10653)
        248          5         48  2.92086058E-03                    1_GWF-(1,11411)  1.12561296E-04                    1_GWF-(1,10653)
        249          5         49  2.25976977E-03                    1_GWF-(1,11425)  1.12243052E-04                    1_GWF-(1,10654)
        250          5         50 -2.97235932E-03                     1_GWF-(1,8033)  1.31692376E-04                    1_GWF-(1,10653)
        251          6          1 -5.15672017E-03                    1_GWF-(1,11374)  9.60847313E-05                    1_GWF-(1,10654)
        252          6          2 -2.41063611E-03                    1_GWF-(1,11436)  1.43368854E-04                    1_GWF-(1,10653)
        253          6          3 -2.44059921E-03                    1_GWF-(1,26218) -1.40315294E-04                    1_GWF-(1,10653)
        254          6          4 -2.57636456E-03                    1_GWF-(1,11374)  1.07058402E-04                    1_GWF-(1,10653)
        255          6          5 -2.50759510E-03                    1_GWF-(1,26218)  1.05108715E-04                    1_GWF-(1,10654)
        256          6          6 -2.21616811E-03                    1_GWF-(1,26217)  1.10994700E-04                    1_GWF-(1,10653)
        257          6          7  2.14590885E-03                    1_GWF-(1,11316)  5.77530879E-05                    1_GWF-(1,10654)
        258          6          8 -2.80162200E-03                    1_GWF-(1,26665)  3.30266907E-05                    1_GWF-(1,10653)
        259          6          9 -2.79240371E-03                    1_GWF-(1,26666)  5.78646893E-05                    1_GWF-(1,10653)
        260          6         10 -2.82663725E-03                    1_GWF-(1,26665) -7.00896063E-05                    1_GWF-(1,10653)
        261          6         11  1.97009222E-03                    1_GWF-(1,26665) -4.53075367E-05                    1_GWF-(1,10654)
        262          6         12  1.41095428E-03                    1_GWF-(1,26588) -4.69928386E-05                    1_GWF-(1,10650)
        263          6         13  1.53536882E-03                    1_GWF-(1,26589)  1.72697691E-05                    1_GWF-(1,11351)
        264          6         14  2.25581613E-03                    1_GWF-(1,26588) -3.39346678E-05                    1_GWF-(1,10654)
        265          6         15  1.92892204E-03                    1_GWF-(1,26543) -3.86947437E-05                    1_GWF-(1,10653)
        266          6         16  2.06290152E-03                    1_GWF-(1,26588)  3.07323533E-05                    1_GWF-(1,10653)
        267          6         17 -1.21351059E-03                    1_GWF-(1,26420)  1.87713767E-05                    1_GWF-(1,10871)
        268          6         18 -1.06629490E-03                    1_GWF-(1,26422) -3.02675451E-05                    1_GWF-(1,15080)
        269          6         19  1.32170331E-03                    1_GWF-(1,26422) -3.36916174E-05                    1_GWF-(1,10654)
        270          6         20  1.26806247E-03                    1_GWF-(1,26350) -5.07513472E-05                    1_GWF-(1,10653)
        271          6         21 -1.37337107E-03                    1_GWF-(1,26649) -2.97461767E-05                    1_GWF-(1,10654)
        272          6         22 -1.60063826E-03                    1_GWF-(1,26622)  1.37829701E-05                    1_GWF-(1,10864)
        273          6         23 -1.51956858E-03                    1_GWF-(1,26649) -3.20814566E-05                    1_GWF-(1,10653)
        274          6         24 -1.23050874E-03                    1_GWF-(1,26544) -4.49494820E-05                    1_GWF-(1,10654)
        275          6         25 -1.60637387E-03                    1_GWF-(1,26422) -4.56784670E-05                    1_GWF-(1,10653)
        276          6         26 -1.70585754E-03                    1_GWF-(1,26350)  4.00723394E-05                    1_GWF-(1,10653)
        277          6         27 -1.55047382E-03                    1_GWF-(1,26422) -2.99378246E-05                    1_GWF-(1,10653)
        278          6         28 -1.07051355E-03                    1_GWF-(1,26350)  1.72519091E-05                    1_GWF-(1,15078)
        279          6         29  1.02441310E-03                    1_GWF-(1,26420) -2.10250803E-05                    1_GWF-(1,10654)
        280          6         30  1.30387350E-03                    1_GWF-(1,26421) -4.81700660E-05                    1_GWF-(1,10653)
        281          6         31  1.22005991E-03                    1_GWF-(1,26420) -3.46382119E-05                    1_GWF-(1,10654)
        282          6         32  1.09150237E-03                    1_GWF-(1,26487)  2.35539943E-05                    1_GWF-(1,10654)
        283          6         33  1.14631886E-03                    1_GWF-(1,26486)  1.55395038E-05                    1_GWF-(1,10651)
        284          6         34  8.68157884E-04                    1_GWF-(1,26487)  2.53093895E-05                    1_GWF-(1,10650)
        285          6         35  7.76728229E-04                    1_GWF-(1,26486)  3.54613149E-05                    1_GWF-(1,10654)
        286          6         36 -5.63178805E-04                    1_GWF-(1,11452)  4.59761071E-05                    1_GWF-(1,10653)
        287          6         37 -4.46640825E-04                    1_GWF-(1,26217) -3.58261382E-05                    1_GWF-(1,10653)
        288          6         38  5.89494252E-04                    1_GWF-(1,11451)  3.32184594E-05                    1_GWF-(1,10653)
        289          6         39  6.05007183E-04                    1_GWF-(1,11368)  3.07029829E-05                    1_GWF-(1,10654)
        290          6         40  4.89082018E-04                    1_GWF-(1,11378)  3.85982210E-05                     1_GWF-(1,9691)
        291          6         41 -4.33347132E-04                    1_GWF-(1,11378) -4.20824090E-05                     1_GWF-(1,9691)
        292          6         42 -4.45425464E-04                    1_GWF-(1,11450)  5.86088196E-05                     1_GWF-(1,9691)
        293          6         43 -4.41963704E-04                    1_GWF-(1,11368) -6.53583967E-05                     1_GWF-(1,9691)
        294          6         44 -4.31682225E-04                    1_GWF-(1,11378)  7.90558852E-05                     1_GWF-(1,9691)
        295          6         45 -3.35598635E-04                    1_GWF-(1,11373) -8.23540183E-05                     1_GWF-(1,9691)
        296          6         46  4.61082257E-04                    1_GWF-(1,11372)  1.06383034E-04                     1_GWF-(1,9691)
        297          6         47 -3.97718805E-04                    1_GWF-(1,11369) -1.10076842E-04                     1_GWF-(1,9691)
        298          6         48  3.92827965E-04                    1_GWF-(1,11451)  1.14107568E-04                     1_GWF-(1,9691)
        299          6         49  5.84302564E-04                    1_GWF-(1,11369) -7.48813777E-05                     1_GWF-(1,9691)
        300          6         50  8.11471540E-04                    1_GWF-(1,11378)  9.41068043E-05                     1_GWF-(1,9691)
        301          7          1 -8.89290567E-04                    1_GWF-(1,11378) -7.53655678E-05                     1_GWF-(1,9691)
        302          7          2 -5.45868243E-04                    1_GWF-(1,11369)  9.65813913E-05                     1_GWF-(1,9691)
        303          7          3 -4.18697720E-04                    1_GWF-(1,11451) -9.01645958E-05                     1_GWF-(1,9691)
        304          7          4  2.89567168E-04                    1_GWF-(1,11369)  8.69853792E-05                     1_GWF-(1,9691)
        305          7          5 -3.56105621E-04                    1_GWF-(1,11373) -6.37385242E-05                     1_GWF-(1,9691)
        306          7          6  3.15321976E-04                    1_GWF-(1,11373)  5.70975367E-05                     1_GWF-(1,9691)
        307          7          7  2.70600216E-04                    1_GWF-(1,11378) -4.44053467E-05                     1_GWF-(1,9691)
        308          7          8  2.53260474E-04                    1_GWF-(1,11368)  3.93048795E-05                     1_GWF-(1,9691)
        309          7          9  2.27299051E-04                    1_GWF-(1,11373) -2.65016794E-05                     1_GWF-(1,9691)
        310          7         10 -2.05737640E-04                    1_GWF-(1,11373)  2.17929152E-05                     1_GWF-(1,9691)
        311          7         11 -2.68562108E-04                    1_GWF-(1,11378)  1.32028768E-05                    1_GWF-(1,10654)
        312          7         12 -3.00731923E-04                    1_GWF-(1,26588)  1.11656263E-05                    1_GWF-(1,10653)
        313          7         13 -3.41982446E-04                    1_GWF-(1,26543)  6.56244423E-06                     1_GWF-(1,9691)
        314          7         14 -3.81534398E-04                    1_GWF-(1,26588)  9.43981849E-06                     1_GWF-(1,9692)
        315          7         15 -2.90953894E-04                    1_GWF-(1,26543)  1.45774981E-05                    1_GWF-(1,10653)
        316          7         16  2.86662032E-04                    1_GWF-(1,11369) -1.44617566E-05                    1_GWF-(1,10653)
        317          7         17  2.17678299E-04                    1_GWF-(1,11454)  1.44358881E-05                    1_GWF-(1,10653)
        318          7         18 -2.43943741E-04                    1_GWF-(1,26487)  7.58727316E-06                    1_GWF-(1,10654)
        319          7         19  3.34648956E-04                    1_GWF-(1,26649)  4.65921069E-06                     1_GWF-(1,9692)
        320          7         20 -2.99615178E-04                    1_GWF-(1,26649) -9.81599360E-06                    1_GWF-(1,10654)
        321          7         21  2.92021663E-04                    1_GWF-(1,26649) -1.49042495E-05                    1_GWF-(1,10653)
        322          7         22  2.01366193E-04                    1_GWF-(1,26622)  1.14770665E-05                    1_GWF-(1,10653)
        323          7         23 -1.92902062E-04                    1_GWF-(1,26622) -9.46141221E-06                    1_GWF-(1,10653)
        324          7         24 -2.54203699E-04                    1_GWF-(1,26623)  3.08499505E-06                    1_GWF-(1,11041)
        325          7         25  2.34190433E-04                    1_GWF-(1,26588)  6.99775006E-06                    1_GWF-(1,10653)
        326          7         26  2.22266237E-04                    1_GWF-(1,26487) -8.40248364E-06                    1_GWF-(1,10653)
        327          7         27  2.28372029E-04                    1_GWF-(1,26420)  8.07859823E-06                     1_GWF-(1,9690)
        328          7         28  1.67070390E-04                    1_GWF-(1,26421)  5.07006401E-06                     1_GWF-(1,9669)
        329          7         29  1.32945133E-04                    1_GWF-(1,26420)  3.83882035E-06                     1_GWF-(1,9690)
        330          7         30 -1.40081277E-04                    1_GWF-(1,26350)  3.22001417E-06                     1_GWF-(1,9691)
        331          7         31 -1.84739739E-04                    1_GWF-(1,26422) -6.41032044E-06                    1_GWF-(1,10653)
        332          7         32 -1.90585811E-04                    1_GWF-(1,26350) -6.45351765E-06                    1_GWF-(1,10654)
        333          7         33 -1.74835762E-04                    1_GWF-(1,26422) -6.36074438E-06                    1_GWF-(1,10653)
        334          7         34  1.57573577E-04                    1_GWF-(1,26422)  6.08985837E-06                     1_GWF-(1,9690)
        335          7         35  1.60430995E-04                    1_GWF-(1,26350)  4.51550149E-06                     1_GWF-(1,9669)
        336          7         36  1.38873476E-04                    1_GWF-(1,26422)  4.25024048E-06                     1_GWF-(1,9690)
        337          7         37 -1.34679450E-04                    1_GWF-(1,26665)  2.00071224E-06                     1_GWF-(1,9669)
        338          7         38 -1.29747257E-04                    1_GWF-(1,26623) -3.46503353E-06                    1_GWF-(1,10653)
        339          7         39 -1.60830943E-04                    1_GWF-(1,26665) -2.87204998E-06                    1_GWF-(1,10654)
        340          7         40  1.39490543E-04                    1_GWF-(1,26665)  2.87068844E-06                     1_GWF-(1,9669)
        341          7         41 -1.26983128E-04                    1_GWF-(1,26350)  4.20048758E-06                     1_GWF-(1,9690)
        342          7         42 -1.29911298E-04                    1_GWF-(1,26422)  2.80926544E-06                    1_GWF-(1,10650)
        343          7         43 -1.17744840E-04                    1_GWF-(1,26350)  3.67015058E-06                    1_GWF-(1,10654)
        344          7         44 -1.02076508E-04                    1_GWF-(1,26422)  5.22256309E-06                    1_GWF-(1,10653)
        345          7         45  8.84139901E-05                    1_GWF-(1,26217)  4.43469315E-06                    1_GWF-(1,10654)
        346          7         46  9.47363399E-05                    1_GWF-(1,26218)  4.76248364E-06                    1_GWF-(1,10653)
        347          7         47  9.00440940E-05                    1_GWF-(1,26422) -5.27684211E-06                    1_GWF-(1,10653)
        348          7         48  8.95808562E-05                    1_GWF-(1,26218)  5.02514324E-06                    1_GWF-(1,10653)
        349          7         49  6.61845206E-05                    1_GWF-(1,26217)  4.13331373E-06                    1_GWF-(1,10654)
        350          7         50  9.67969488E-05                    1_GWF-(1,11936)  4.60032015E-06                    1_GWF-(1,10653)
        351          8          1 -9.63663480E-05                    1_GWF-(1,11936)  3.80068989E-06                    1_GWF-(1,10654)
        352          8          2 -6.78012202E-05                    1_GWF-(1,11436)  4.77160909E-06                    1_GWF-(1,10653)
        353          8          3 -7.44455879E-05                    1_GWF-(1,26218) -3.70034064E-06                    1_GWF-(1,10653)
        354          8          4  8.14788712E-05                    1_GWF-(1,26649)  2.04195911E-06                     1_GWF-(1,9690)
        355          8          5  1.02536119E-04                    1_GWF-(1,26622)  1.24279236E-06                    1_GWF-(1,10653)
        356          8          6  8.08871664E-05                    1_GWF-(1,26649)  2.63803366E-06                    1_GWF-(1,10654)
        357          8          7 -6.32875296E-05                    1_GWF-(1,26649)  3.53481625E-06                    1_GWF-(1,10653)
        358          8          8  6.26579017E-05                    1_GWF-(1,26217)  2.97452557E-06                    1_GWF-(1,10654)
        359          8          9  7.63996470E-05                    1_GWF-(1,26218)  3.34400500E-06                     1_GWF-(1,9690)
        360          8         10  6.73354127E-05                    1_GWF-(1,26217) -1.92310070E-06                     1_GWF-(1,9690)
        361          8         11  5.68765218E-05                    1_GWF-(1,26420)  1.01343766E-06                     1_GWF-(1,9690)
        362          8         12  6.88717113E-05                    1_GWF-(1,26487) -8.02233753E-07                    1_GWF-(1,10487)
        363          8         13  6.44884822E-05                    1_GWF-(1,26486) -1.28107717E-06                    1_GWF-(1,10653)
        364          8         14  5.22813577E-05                    1_GWF-(1,26487)  1.12059092E-06                     1_GWF-(1,9690)
        365          8         15 -4.96355679E-05                    1_GWF-(1,26218)  7.35973351E-07                     1_GWF-(1,9669)
        366          8         16 -5.11753554E-05                    1_GWF-(1,26422) -6.80320313E-07                    1_GWF-(1,15080)
        367          8         17 -4.65860712E-05                    1_GWF-(1,26350)  1.19878876E-06                    1_GWF-(1,10653)
        368          8         18 -3.73115846E-05                    1_GWF-(1,26422) -1.40248744E-06                    1_GWF-(1,10653)
        369          8         19 -4.54298086E-05                    1_GWF-(1,26622)  1.25452837E-06                     1_GWF-(1,9690)
        370          8         20 -5.01828094E-05                    1_GWF-(1,26543)  7.63180747E-07                    1_GWF-(1,10961)
        371          8         21 -4.74032006E-05                    1_GWF-(1,26588) -8.54186828E-07                    1_GWF-(1,10653)
        372          8         22 -3.46203157E-05                    1_GWF-(1,26543)  1.10548286E-06                    1_GWF-(1,10653)
        373          8         23 -3.60842169E-05                    1_GWF-(1,26588) -1.68166762E-06                    1_GWF-(1,10653)
        374          8         24  3.68831172E-05                    1_GWF-(1,26588) -1.33261178E-06                    1_GWF-(1,10654)
        375          8         25 -3.53591185E-05                    1_GWF-(1,26588)  7.10872048E-07                     1_GWF-(1,9669)
        376          8         26  4.56545653E-05                    1_GWF-(1,26588)  4.40964133E-07                    1_GWF-(1,11058)
        377          8         27  4.33481456E-05                    1_GWF-(1,26665) -1.12723503E-06                    1_GWF-(1,10654)
        378          8         28  3.06234424E-05                    1_GWF-(1,26588) -1.50784260E-06                    1_GWF-(1,10653)
        379          8         29  3.63554289E-05                    1_GWF-(1,26422)  1.21328070E-06                     1_GWF-(1,9690)
        380          8         30  4.33435186E-05                    1_GWF-(1,26350) -8.02907781E-07                    1_GWF-(1,10653)
        381          8         31  4.39829111E-05                    1_GWF-(1,26422)  5.74431536E-07                     1_GWF-(1,9690)
        382          8         32  3.38364137E-05                    1_GWF-(1,26350)  8.01619562E-07                    1_GWF-(1,10653)
        383          8         33  2.79100518E-05                    1_GWF-(1,26421) -9.18859956E-07                    1_GWF-(1,10653)
        384          8         34  1.62691035E-05                    1_GWF-(1,26420)  1.22885248E-06                    1_GWF-(1,10653)
        385          8         35 -1.77340655E-05                    1_GWF-(1,11368)  1.26946036E-06                    1_GWF-(1,10654)
        386          8         36 -1.53736799E-05                    1_GWF-(1,26421)  1.47432476E-06                    1_GWF-(1,10653)
        387          8         37 -1.57727518E-05                    1_GWF-(1,26217) -1.17164336E-06                    1_GWF-(1,10653)
        388          8         38  1.68689241E-05                    1_GWF-(1,11451)  1.31161951E-06                     1_GWF-(1,9690)
        389          8         39  1.40924749E-05                    1_GWF-(1,11368) -1.08337474E-06                     1_GWF-(1,9690)
        390          8         40 -1.32800897E-05                    1_GWF-(1,26487)  1.26580008E-06                     1_GWF-(1,9690)
        391          8         41  1.72948595E-05                    1_GWF-(1,26487) -9.26083898E-07                     1_GWF-(1,9691)
        392          8         42  2.50684457E-05                    1_GWF-(1,26486)  5.20817426E-07                     1_GWF-(1,9691)
        393          8         43  2.37923943E-05                    1_GWF-(1,26487)  7.29937567E-07                     1_GWF-(1,9690)
        394          8         44  1.41852373E-05                    1_GWF-(1,26486) -9.68003339E-07                     1_GWF-(1,9691)
        395          8         45 -9.69552282E-06                    1_GWF-(1,11372)  1.48265098E-06                     1_GWF-(1,9691)
        396          8         46 -1.30226406E-05                     1_GWF-(1,8097) -1.46045506E-06                     1_GWF-(1,9691)
        397          8         47 -1.28279062E-05                    1_GWF-(1,11454)  2.02404194E-06                     1_GWF-(1,9691)
        398          8         48  1.44866809E-05                    1_GWF-(1,26622) -1.74726511E-06                     1_GWF-(1,9691)
        399          8         49  1.72501407E-05                    1_GWF-(1,26649)  9.14628780E-07                     1_GWF-(1,9691)
        400          8         50  1.80604517E-05                    1_GWF-(1,26622)  6.27244060E-07                     1_GWF-(1,9691)
        401          9          1 -1.75153607E-05                    1_GWF-(1,26622) -5.01819704E-07                     1_GWF-(1,9691)
        402          9          2 -1.70710181E-05                    1_GWF-(1,26649)  2.08520677E-07                     1_GWF-(1,5611)
        403          9          3 -1.34549309E-05                    1_GWF-(1,26622)  7.16125577E-07                     1_GWF-(1,9690)
        404          9          4  1.68436205E-05                    1_GWF-(1,11378)  6.55513671E-07                     1_GWF-(1,9692)
        405          9          5 -1.22315585E-05                    1_GWF-(1,11378)  1.22326843E-06                     1_GWF-(1,9691)
        406          9          6 -6.96652581E-06                    1_GWF-(1,23373) -1.36703328E-06                     1_GWF-(1,9691)
        407          9          7  1.03170050E-05                    1_GWF-(1,11378)  1.40590235E-06                     1_GWF-(1,9691)
        408          9          8  1.36370529E-05                    1_GWF-(1,26486) -8.42084586E-07                     1_GWF-(1,9691)
        409          9          9 -1.56184727E-05                    1_GWF-(1,26486) -4.66800484E-07                     1_GWF-(1,9690)
        410          9         10 -1.19294734E-05                    1_GWF-(1,26487)  1.37879550E-06                     1_GWF-(1,9691)
        411          9         11  8.35378975E-06                    1_GWF-(1,26487) -1.76001412E-06                     1_GWF-(1,9691)
        412          9         12 -7.00276861E-06                    1_GWF-(1,11415)  2.01796046E-06                     1_GWF-(1,9691)
        413          9         13 -8.03696460E-06                    1_GWF-(1,11451) -1.85868175E-06                     1_GWF-(1,9691)
        414          9         14 -5.97411296E-06                    1_GWF-(1,11466)  1.98885104E-06                     1_GWF-(1,9691)
        415          9         15  4.96338870E-06                    1_GWF-(1,26421) -1.68030485E-06                     1_GWF-(1,9691)
        416          9         16  6.65080444E-06                    1_GWF-(1,11369)  1.65465855E-06                     1_GWF-(1,9691)
        417          9         17 -5.51980363E-06                    1_GWF-(1,26666) -1.19071726E-06                     1_GWF-(1,9691)
        418          9         18 -6.84802607E-06                    1_GWF-(1,26665)  8.31028825E-07                     1_GWF-(1,9691)
        419          9         19  1.07927656E-05                    1_GWF-(1,26665)  7.17718911E-07                     1_GWF-(1,9690)
        420          9         20  1.04046808E-05                    1_GWF-(1,26666)  3.98887572E-07                     1_GWF-(1,9692)
        421          9         21  1.02222928E-05                    1_GWF-(1,26665)  9.22567739E-07                     1_GWF-(1,9691)
        422          9         22  7.58130541E-06                    1_GWF-(1,26588) -8.45986252E-07                     1_GWF-(1,9691)
        423          9         23 -7.71514267E-06                    1_GWF-(1,26588) -7.73517106E-07                     1_GWF-(1,9690)
        424          9         24 -5.54030590E-06                    1_GWF-(1,26543)  8.04115894E-07                     1_GWF-(1,9690)
        425          9         25 -6.78440595E-06                    1_GWF-(1,26588) -4.59669592E-07                     1_GWF-(1,9690)
        426          9         26  5.97806872E-06                    1_GWF-(1,26588)  2.91120144E-07                     1_GWF-(1,9691)
        427          9         27 -6.44884964E-06                    1_GWF-(1,26622)  3.64967313E-07                     1_GWF-(1,9692)
        428          9         28  5.34393065E-06                    1_GWF-(1,26622)  4.26083712E-07                     1_GWF-(1,9691)
        429          9         29  4.65037630E-06                    1_GWF-(1,26623)  5.12104625E-07                     1_GWF-(1,9690)
        430          9         30  5.31871034E-06                    1_GWF-(1,26622)  4.01852099E-07                     1_GWF-(1,9669)
        431          9         31  5.27403476E-06                    1_GWF-(1,26486)  3.69742333E-07                     1_GWF-(1,9690)
        432          9         32 -6.23079949E-06                    1_GWF-(1,26486)  1.53427093E-07                     1_GWF-(1,9692)
        433          9         33  8.43146611E-06                    1_GWF-(1,26486)  2.67886512E-07                     1_GWF-(1,9691)
        434          9         34  7.17675871E-06                    1_GWF-(1,26487)  3.57799376E-07                     1_GWF-(1,9690)
        435          9         35  5.95679602E-06                    1_GWF-(1,26420)  2.22302665E-07                     1_GWF-(1,9669)
        436          9         36  6.92586327E-06                    1_GWF-(1,26422)  1.53357336E-07                     1_GWF-(1,9691)
        437          9         37  6.46232113E-06                    1_GWF-(1,26350) -1.94541879E-07                     1_GWF-(1,9691)
        438          9         38  5.51387823E-06                    1_GWF-(1,26422)  3.11414854E-07                     1_GWF-(1,9691)
        439          9         39 -5.58580687E-06                    1_GWF-(1,26422)  2.94769514E-07                     1_GWF-(1,9692)
        440          9         40 -4.60101204E-06                    1_GWF-(1,26350)  2.90393327E-07                     1_GWF-(1,9691)
        441          9         41  3.74815564E-06                    1_GWF-(1,26622)  2.52137636E-07                     1_GWF-(1,9690)
        442          9         42  5.62373751E-06                    1_GWF-(1,26623)  8.62660318E-08                    1_GWF-(1,10651)
        443          9         43  5.63614997E-06                    1_GWF-(1,26622)  1.88641527E-07                     1_GWF-(1,9691)
        444          9         44  4.69784312E-06                    1_GWF-(1,26649)  2.28530597E-07                     1_GWF-(1,9690)
        445          9         45  2.71955833E-06                    1_GWF-(1,26486) -1.88323433E-07                     1_GWF-(1,9690)
        446          9         46 -2.15434266E-06                    1_GWF-(1,26648)  1.72626757E-07                     1_GWF-(1,9690)
        447          9         47 -2.72703180E-06                    1_GWF-(1,26649)  1.09626283E-07                     1_GWF-(1,9669)
        448          9         48  2.31767075E-06                    1_GWF-(1,26217)  9.41292692E-08                     1_GWF-(1,9690)
        449          9         49 -2.47013666E-06                    1_GWF-(1,26586)  9.66996056E-08                     1_GWF-(1,9691)
        450          9         50  2.23548839E-06                    1_GWF-(1,11936)  6.55909822E-08                    1_GWF-(1,11353)
        451         10          1 -2.48519750E-06                    1_GWF-(1,26217)  8.99147971E-08                     1_GWF-(1,9691)
        452         10          2 -3.23342527E-06                    1_GWF-(1,26218)  6.54460213E-08                     1_GWF-(1,9692)
        453         10          3 -3.20647888E-06                    1_GWF-(1,26217)  9.06626845E-08                     1_GWF-(1,9691)
        454         10          4 -3.03566801E-06                    1_GWF-(1,26218)  7.06637179E-08                     1_GWF-(1,9692)
        455         10          5  2.59410430E-06                    1_GWF-(1,26588)  6.59637932E-08                     1_GWF-(1,9691)
        456         10          6 -2.96241332E-06                    1_GWF-(1,26588)  4.82617399E-08                    1_GWF-(1,11353)
        457         10          7  2.90581373E-06                    1_GWF-(1,26420)  3.67932991E-08                    1_GWF-(1,10652)
        458         10          8  2.41996851E-06                    1_GWF-(1,26487)  8.56111479E-08                     1_GWF-(1,9691)
        459         10          9  2.49863148E-06                    1_GWF-(1,26420)  7.83919263E-08                     1_GWF-(1,9692)
        460         10         10 -1.92218163E-06                    1_GWF-(1,26649)  7.20376900E-08                     1_GWF-(1,9691)
        461         10         11 -2.10173397E-06                    1_GWF-(1,26622) -4.12500719E-08                     1_GWF-(1,9691)
        462         10         12  2.41518705E-06                    1_GWF-(1,26622) -3.66037156E-08                    1_GWF-(1,10650)
        463         10         13  1.98131668E-06                    1_GWF-(1,26543)  4.64610984E-08                     1_GWF-(1,9691)
        464         10         14  1.47447619E-06                    1_GWF-(1,26622) -5.83221710E-08                     1_GWF-(1,9691)
        465         10         15  1.33935949E-06                    1_GWF-(1,26665)  7.14205529E-08                     1_GWF-(1,9691)
        466         10         16 -1.59037995E-06                    1_GWF-(1,26422) -6.00561980E-08                     1_GWF-(1,9691)
        467         10         17  1.75341018E-06                    1_GWF-(1,26665)  4.27131068E-08                     1_GWF-(1,9691)
        468         10         18 -2.13022781E-06                    1_GWF-(1,26665)  2.35005683E-08                    1_GWF-(1,11353)
        469         10         19  1.62759606E-06                    1_GWF-(1,26665)  3.76311847E-08                     1_GWF-(1,9692)
        470         10         20 -1.65731602E-06                    1_GWF-(1,26665)  7.37676410E-08                     1_GWF-(1,9691)
        471         10         21 -1.07703839E-06                    1_GWF-(1,26666)  6.15941547E-08                     1_GWF-(1,9692)
        472         10         22  1.23301918E-06                    1_GWF-(1,26422)  6.97547014E-08                     1_GWF-(1,9691)
        473         10         23 -1.35570133E-06                    1_GWF-(1,26422)  5.20864925E-08                     1_GWF-(1,9692)
        474         10         24 -1.59747988E-06                    1_GWF-(1,26350)  4.65936884E-08                     1_GWF-(1,9691)
        475         10         25 -1.43832686E-06                    1_GWF-(1,26422)  1.48317805E-08                     1_GWF-(1,5612)
        476         10         26  1.40756912E-06                    1_GWF-(1,26486)  2.51102439E-08                     1_GWF-(1,9692)
        477         10         27  1.30140952E-06                    1_GWF-(1,26588)  4.55456850E-08                     1_GWF-(1,9691)
        478         10         28  1.11620421E-06                    1_GWF-(1,26420)  2.40141579E-08                     1_GWF-(1,9692)
        479         10         29  1.30781258E-06                    1_GWF-(1,26422) -1.86557593E-08                    1_GWF-(1,11353)
        480         10         30  1.30534534E-06                    1_GWF-(1,26350)  3.81488058E-08                     1_GWF-(1,9691)
        481         10         31  1.15907293E-06                    1_GWF-(1,26422)  4.34300342E-08                     1_GWF-(1,9692)
        482         10         32  7.65404969E-07                    1_GWF-(1,26350)  5.55795720E-08                     1_GWF-(1,9691)
        483         11          1  6.79094166E-07                    1_GWF-(1,26665) -4.72274553E-08                     1_GWF-(1,9691)
 --------------------------------------------------------------------------------------------------------------------------------------



 MEMORY MANAGER TOTAL STORAGE BY DATA TYPE, IN MEGABYTES
 -------------------------------
                    ALLOCATED   
 DATA TYPE           MEMORY     
 -------------------------------
 Character        4.66090000E-02
 Logical          4.40000000E-05
 Integer          5.2037920     
 Real             11.901376     
 -------------------------------
 Total            17.151821     
 -------------------------------


 
 Run end date and time (yyyy/mm/dd hh:mm:ss): 2022/04/25 11:39:30
 Elapsed run time:  0.561 Seconds
 Normal termination of simulation.
