                                   MODFLOW 6
                U.S. GEOLOGICAL SURVEY MODULAR HYDROLOGIC MODEL
                          GROUNDWATER FLOW MODEL (GWF)
                            VERSION 6.2.2 07/30/2021

   MODFLOW 6 compiled Jul 31 2021 14:22:53 with IFORT compiler (ver. 19.10.3)

This software has been approved for release by the U.S. Geological 
Survey (USGS). Although the software has been subjected to rigorous 
review, the USGS reserves the right to update the software as needed 
pursuant to further analysis and review. No warranty, expressed or 
implied, is made by the USGS or the U.S. Government as to the 
functionality of the software and related material nor shall the 
fact of release constitute any such warranty. Furthermore, the 
software is released on condition that neither the USGS nor the U.S. 
Government shall be held liable for any damages resulting from its 
authorized or unauthorized use. Also refer to the USGS Water 
Resources Software User Rights Notice for complete use, copyright, 
and distribution information.


System command used to initiate simulation:
mf6

MODFLOW was compiled using uniform precision.

Real Variables
  KIND: 8
  TINY (smallest non-zero value):    2.225074-308
  HUGE (largest value):    1.797693+308
  PRECISION: 15
  BIT SIZE: 64

Integer Variables
  KIND: 4
  HUGE (largest value): 2147483647
  BIT SIZE: 32

Long Integer Variables
  KIND: 8
  HUGE (largest value): 9223372036854775807
  BIT SIZE: 64

Logical Variables
  KIND: 4
  BIT SIZE: 32
 

 OPENED ./ml.disv
 FILE TYPE:DISV6                  UNIT 1005   STATUS:OLD                 
 FORMAT:FORMATTED              ACCESS:SEQUENTIAL          
 ACTION:READ                


 OPENED ./ml.ic
 FILE TYPE:IC6                    UNIT 1006   STATUS:OLD                 
 FORMAT:FORMATTED              ACCESS:SEQUENTIAL          
 ACTION:READ                


 OPENED ./ml.npf
 FILE TYPE:NPF6                   UNIT 1007   STATUS:OLD                 
 FORMAT:FORMATTED              ACCESS:SEQUENTIAL          
 ACTION:READ                


 OPENED ./ml.ghb
 FILE TYPE:GHB6                   UNIT 1008   STATUS:OLD                 
 FORMAT:FORMATTED              ACCESS:SEQUENTIAL          
 ACTION:READ                


 OPENED ./ml.rcha
 FILE TYPE:RCH6                   UNIT 1009   STATUS:OLD                 
 FORMAT:FORMATTED              ACCESS:SEQUENTIAL          
 ACTION:READ                


 OPENED ./ml.obs
 FILE TYPE:OBS6                   UNIT 1010   STATUS:OLD                 
 FORMAT:FORMATTED              ACCESS:SEQUENTIAL          
 ACTION:READ                


 OPENED ./ml.oc
 FILE TYPE:OC6                    UNIT 1011   STATUS:OLD                 
 FORMAT:FORMATTED              ACCESS:SEQUENTIAL          
 ACTION:READ                


 OPENED ml.wel
 FILE TYPE:WEL6                   UNIT 1012   STATUS:OLD                 
 FORMAT:FORMATTED              ACCESS:SEQUENTIAL          
 ACTION:READ                


 OPENED ml.drn
 FILE TYPE:DRN6                   UNIT 1013   STATUS:OLD                 
 FORMAT:FORMATTED              ACCESS:SEQUENTIAL          
 ACTION:READ                


 OPENED ml.riv
 FILE TYPE:RIV6                   UNIT 1014   STATUS:OLD                 
 FORMAT:FORMATTED              ACCESS:SEQUENTIAL          
 ACTION:READ                


 DISV -- VERTEX GRID DISCRETIZATION PACKAGE, VERSION 1 : 12/23/2015 - INPUT READ FROM UNIT 1005


 # File generated by Flopy version 3.3.5 on 06/01/2022 at 18:11:23.

 PROCESSING DISCRETIZATION OPTIONS
    MODEL LENGTH UNIT IS METERS
    XORIGIN SPECIFIED AS     405575.681000000    
    YORIGIN SPECIFIED AS     6423306.54000000    
 END OF DISCRETIZATION OPTIONS

 PROCESSING DISCRETIZATION DIMENSIONS
   NLAY = 1
   NCPL = 26674
   NVERT = 27090
 END OF DISCRETIZATION DIMENSIONS

 PROCESSING GRIDDATA
 END PROCESSING GRIDDATA

 PROCESSING VERTICES
   SUCCESSFULLY READ 27090 (X,Y) COORDINATES
   MINIMUM X COORDINATE =     405575.681000000    
   MAXIMUM X COORDINATE =     413975.681000000    
   MINIMUM Y COORDINATE =     6423306.54000000    
   MAXIMUM Y COORDINATE =     6432506.54000000    
 END PROCESSING VERTICES

 PROCESSING CELL2D
   SUCCESSFULLY READ 26674 CELL2D INFORMATION ENTRIES
   MINIMUM X CELL CENTER =     405675.681000000    
   MAXIMUM X CELL CENTER =     413875.681000000    
   MINIMUM Y CELL CENTER =     6423406.54000000    
   MAXIMUM Y CELL CENTER =     6432406.54000000    
   MAXIMUM NUMBER OF CELL2D VERTICES IS 6 FOR CELL 208
 END PROCESSING VERTICES

 NPF -- NODE PROPERTY FLOW PACKAGE, VERSION 1, 3/30/2015 INPUT READ FROM UNIT 1007


 # File generated by Flopy version 3.3.5 on 06/01/2022 at 18:11:26.
 PROCESSING NPF OPTIONS
    CELL-BY-CELL FLOW INFORMATION WILL BE SAVED TO BINARY FILE WHENEVER ICBCFL IS NOT ZERO.
    SPECIFIC DISCHARGE WILL BE CALCULATED AT CELL CENTERS AND WRITTEN TO DATA-SPDIS IN BUDGET FILE WHEN REQUESTED.
 END OF NPF OPTIONS

 WEL   -- WEL PACKAGE, VERSION 8, 2/22/2014 INPUT READ FROM UNIT 1012
 # File generated by Flopy version 3.3.5 on 06/01/2022 at 18:11:26.

 PROCESSING WEL OPTIONS
    WEL BOUNDARIES HAVE NAMES IN LAST COLUMN.
    FLOWS WILL BE SAVED TO BUDGET FILE SPECIFIED IN OUTPUT CONTROL
 END OF WEL OPTIONS

 PROCESSING WEL DIMENSIONS
    MAXBOUND =       9
 END OF WEL DIMENSIONS

 DRN   -- DRN PACKAGE, VERSION 8, 2/22/2014 INPUT READ FROM UNIT 1013
 # File generated by Flopy version 3.3.5 on 06/01/2022 at 18:11:26.

 PROCESSING DRN OPTIONS
    DRN BOUNDARIES HAVE NAMES IN LAST COLUMN.
    FLOWS WILL BE SAVED TO BUDGET FILE SPECIFIED IN OUTPUT CONTROL

 OPENED ml.drn.obs
 FILE TYPE:OBS   UNIT 1016   STATUS:OLD                 
 FORMAT:FORMATTED              ACCESS:SEQUENTIAL          
 ACTION:READ                

 END OF DRN OPTIONS

 PROCESSING DRN DIMENSIONS
    MAXBOUND =     133
 END OF DRN DIMENSIONS

 RIV   -- RIV PACKAGE, VERSION 8, 2/22/2014 INPUT READ FROM UNIT 1014
 # File generated by Flopy version 3.3.5 on 06/01/2022 at 18:11:26.

 PROCESSING RIV OPTIONS
    AUXILIARY RIV VARIABLE: FID             
    RIV BOUNDARIES HAVE NAMES IN LAST COLUMN.
    FLOWS WILL BE SAVED TO BUDGET FILE SPECIFIED IN OUTPUT CONTROL
 END OF RIV OPTIONS

 PROCESSING RIV DIMENSIONS
    MAXBOUND =     794
 END OF RIV DIMENSIONS

 GHB   -- GHB PACKAGE, VERSION 8, 2/22/2014 INPUT READ FROM UNIT 1008
 # File generated by Flopy version 3.3.5 on 06/01/2022 at 18:11:26.

 PROCESSING GHB OPTIONS
    GHB BOUNDARIES HAVE NAMES IN LAST COLUMN.
    FLOWS WILL BE SAVED TO BUDGET FILE SPECIFIED IN OUTPUT CONTROL
 END OF GHB OPTIONS

 PROCESSING GHB DIMENSIONS
    MAXBOUND =     153
 END OF GHB DIMENSIONS

 RCH   -- RCH PACKAGE, VERSION 8, 2/22/2014 INPUT READ FROM UNIT 1009
 # File generated by Flopy version 3.3.5 on 06/01/2022 at 18:11:26.

 PROCESSING RCH OPTIONS
    RECHARGE INPUT WILL BE READ AS ARRAY(S).
    FLOWS WILL BE SAVED TO BUDGET FILE SPECIFIED IN OUTPUT CONTROL
 END OF RCH OPTIONS

 IC -- INITIAL CONDITIONS PACKAGE, VERSION 8, 3/28/2015 INPUT READ FROM UNIT 1006
 # File generated by Flopy version 3.3.5 on 06/01/2022 at 18:11:26.
 PROCESSING GRIDDATA

     INITIAL HEAD =   15.00000    
 END PROCESSING GRIDDATA
 PROCESSING GRIDDATA

                ICELLTYPE = 0

 OPENED ../com_ext/k.txt
 FILE TYPE:OPEN/CLOSE   UNIT 1017   STATUS:OLD                 
 FORMAT:FORMATTED              ACCESS:SEQUENTIAL          
 ACTION:READ                

 K33 not provided.  Assuming K33 = K.
 K22 not provided.  Assuming K22 = K.
 END PROCESSING GRIDDATA

The observation utility is active for "ML"
 # File generated by Flopy version 3.3.5 on 06/01/2022 at 18:11:26.

Processing observation options:

Text output number of digits of precision set to: 10
The PRINT_INPUT option has been specified.


 OBSERVATIONS READ FROM FILE "ml.obs"
 ----------------------------------------------------------------------------------------------------------------------------------------------------------------------------------------------------------------------------
 NAME                                     TYPE                                       TIME         LOCATION DATA                              OUTPUT FILENAME                                                                 
 ----------------------------------------------------------------------------------------------------------------------------------------------------------------------------------------------------------------------------
 PRG                                      CONTINUOUS  HEAD                           ALL TIMES    "1 16523"                                  sim/hds.csv                                                                     
 P8                                       CONTINUOUS  HEAD                           ALL TIMES    "1 10323"                                  sim/hds.csv                                                                     
 P24                                      CONTINUOUS  HEAD                           ALL TIMES    "1 9594"                                   sim/hds.csv                                                                     
 P25                                      CONTINUOUS  HEAD                           ALL TIMES    "1 13966"                                  sim/hds.csv                                                                     
 P32                                      CONTINUOUS  HEAD                           ALL TIMES    "1 15787"                                  sim/hds.csv                                                                     
 P33                                      CONTINUOUS  HEAD                           ALL TIMES    "1 15825"                                  sim/hds.csv                                                                     
 PF                                       CONTINUOUS  HEAD                           ALL TIMES    "1 21048"                                  sim/hds.csv                                                                     
 PH                                       CONTINUOUS  HEAD                           ALL TIMES    "1 20781"                                  sim/hds.csv                                                                     
 PZHM1                                    CONTINUOUS  HEAD                           ALL TIMES    "1 14521"                                  sim/hds.csv                                                                     
 P26                                      CONTINUOUS  HEAD                           ALL TIMES    "1 13141"                                  sim/hds.csv                                                                     
 P27                                      CONTINUOUS  HEAD                           ALL TIMES    "1 8465"                                   sim/hds.csv                                                                     
 P28                                      CONTINUOUS  HEAD                           ALL TIMES    "1 8924"                                   sim/hds.csv                                                                     
 P29                                      CONTINUOUS  HEAD                           ALL TIMES    "1 4524"                                   sim/hds.csv                                                                     
 P30                                      CONTINUOUS  HEAD                           ALL TIMES    "1 5255"                                   sim/hds.csv                                                                     
 R20                                      CONTINUOUS  HEAD                           ALL TIMES    "1 10676"                                  sim/hds.csv                                                                     
 R21                                      CONTINUOUS  HEAD                           ALL TIMES    "1 10403"                                  sim/hds.csv                                                                     
 P34                                      CONTINUOUS  HEAD                           ALL TIMES    "1 15131"                                  sim/hds.csv                                                                     
 P37                                      CONTINUOUS  HEAD                           ALL TIMES    "1 15755"                                  sim/hds.csv                                                                     
 P38                                      CONTINUOUS  HEAD                           ALL TIMES    "1 15045"                                  sim/hds.csv                                                                     
 P39                                      CONTINUOUS  HEAD                           ALL TIMES    "1 9637"                                   sim/hds.csv                                                                     
 P40                                      CONTINUOUS  HEAD                           ALL TIMES    "1 9312"                                   sim/hds.csv                                                                     
 AP1                                      CONTINUOUS  HEAD                           ALL TIMES    "1 9702"                                   sim/hds.csv                                                                     
 RCK1                                     CONTINUOUS  HEAD                           ALL TIMES    "1 15900"                                  sim/hds.csv                                                                     
 RCK2                                     CONTINUOUS  HEAD                           ALL TIMES    "1 15199"                                  sim/hds.csv                                                                     
 P23                                      CONTINUOUS  HEAD                           ALL TIMES    "1 6409"                                   sim/hds.csv                                                                     
 ----------------------------------------------------------------------------------------------------------------------------------------------------------------------------------------------------------------------------


    BINARY GRID INFORMATION WILL BE WRITTEN TO:
      UNIT NUMBER: 1019
      FILE NAME: /srv/common/ptrack/case_study/pst/ml_01/./ml.disv.grb

 OPENED /srv/common/ptrack/case_study/pst/ml_01/./ml.disv.grb
 FILE TYPE:DATA(BINARY)   UNIT 1019   STATUS:REPLACE             
 FORMAT:UNFORMATTED            ACCESS:STREAM              
 ACTION:READWRITE           

      THE LAST TIME STEP WILL BE PRINTED
      THE LAST TIME STEP WILL BE PRINTED
 # File generated by Flopy version 3.3.5 on 06/01/2022 at 18:11:26.

 PROCESSING OC OPTIONS

    BUDGET INFORMATION WILL BE WRITTEN TO:
      UNIT NUMBER: 1020
      FILE NAME: ml.cbc

 OPENED ml.cbc
 FILE TYPE:DATA(BINARY)   UNIT 1020   STATUS:REPLACE             
 FORMAT:UNFORMATTED            ACCESS:STREAM              
 ACTION:READWRITE           

    HEAD INFORMATION WILL BE WRITTEN TO:
      UNIT NUMBER: 1021
      FILE NAME: ml.hds

 OPENED ml.hds
 FILE TYPE:DATA(BINARY)   UNIT 1021   STATUS:REPLACE             
 FORMAT:UNFORMATTED            ACCESS:STREAM              
 ACTION:READWRITE           

 END OF OC OPTIONS

The observation utility is active for "DRN_0"
 # File generated by Flopy version 3.3.5 on 06/01/2022 at 18:11:26.

Processing observation options:



start timestep kper="1" kstp="1" mode="normal"


 BEGIN READING OUTPUT CONTROL FOR STRESS PERIOD 1
      THE LAST TIME STEP WILL BE SAVED
      THE LAST TIME STEP WILL BE SAVED

 END READING OUTPUT CONTROL FOR STRESS PERIOD 1

 OPENED ext/wel_spd_01_1.txt
 FILE TYPE:OPEN/CLOSE   UNIT 1023   STATUS:OLD                 
 FORMAT:FORMATTED              ACCESS:SEQUENTIAL          
 ACTION:READ                


 OPENED ext/drn_spd_01_1.txt
 FILE TYPE:OPEN/CLOSE   UNIT 1024   STATUS:OLD                 
 FORMAT:FORMATTED              ACCESS:SEQUENTIAL          
 ACTION:READ                


 OPENED ext/riv_spd_01_1.txt
 FILE TYPE:OPEN/CLOSE   UNIT 1025   STATUS:OLD                 
 FORMAT:FORMATTED              ACCESS:SEQUENTIAL          
 ACTION:READ                


 OPENED ../com_ext/ghb_spd_1.txt
 FILE TYPE:OPEN/CLOSE   UNIT 1026   STATUS:OLD                 
 FORMAT:FORMATTED              ACCESS:SEQUENTIAL          
 ACTION:READ                


 OPENED ../com_ext/rech_spd_1.txt
 FILE TYPE:OPEN/CLOSE   UNIT 1027   STATUS:OLD                 
 FORMAT:FORMATTED              ACCESS:SEQUENTIAL          
 ACTION:READ                


 SLN_1 INNER ITERATION SUMMARY
 --------------------------------------------------------------------------------------------------------------------------------------
      TOTAL      OUTER      INNER                                                            MAXIMUM                                   
  ITERATION  ITERATION  ITERATION  MAXIMUM CHANGE      MAXIMUM CHANGE MODEL-(CELLID)        RESIDUAL    MAXIMUM RESIDUAL MODEL-(CELLID)
 --------------------------------------------------------------------------------------------------------------------------------------
          1          1          1       22.585652                    1_GWF-(1,26517)      0.19503504                    1_GWF-(1,11179)
          2          1          2       37.387274                    1_GWF-(1,26516)     -0.28336434                    1_GWF-(1,11179)
          3          1          3       48.391192                    1_GWF-(1,26515)     -0.24505084                    1_GWF-(1,15975)
          4          1          4       30.785330                    1_GWF-(1,26513)      0.18620029                    1_GWF-(1,11208)
          5          1          5       24.359873                    1_GWF-(1,26647)      0.15449200                    1_GWF-(1,11202)
          6          1          6       28.455092                    1_GWF-(1,26649)     -0.16792595                    1_GWF-(1,11207)
          7          1          7       22.879166                    1_GWF-(1,26622)      0.16983523                    1_GWF-(1,10966)
          8          1          8       17.915876                    1_GWF-(1,26623)      0.14713870                    1_GWF-(1,10960)
          9          1          9       13.956982                    1_GWF-(1,26543)  7.74706662E-02                    1_GWF-(1,10960)
         10          1         10       13.472838                    1_GWF-(1,26486)  8.13516497E-02                    1_GWF-(1,10967)
         11          1         11       10.182523                    1_GWF-(1,26487)      0.11147959                    1_GWF-(1,10966)
         12          1         12       6.8760557                    1_GWF-(1,26420)  9.15515183E-02                    1_GWF-(1,10960)
         13          1         13       5.9271197                    1_GWF-(1,26422)  6.25299535E-02                    1_GWF-(1,10960)
         14          1         14       4.1028758                    1_GWF-(1,26350)  6.25068557E-02                    1_GWF-(1,10966)
         15          1         15       2.7409336                    1_GWF-(1,26218)  8.29118999E-02                    1_GWF-(1,10966)
         16          1         16      -2.6465721                    1_GWF-(1,26622)  6.75586948E-02                    1_GWF-(1,10960)
         17          1         17      -3.2742956                    1_GWF-(1,26623)  4.27642149E-02                    1_GWF-(1,11206)
         18          1         18      -3.9252027                    1_GWF-(1,26543)  5.45118421E-02                    1_GWF-(1,10967)
         19          1         19      -5.3827292                    1_GWF-(1,26588)  6.34530586E-02                    1_GWF-(1,10966)
         20          1         20      -4.3074955                    1_GWF-(1,26543)  4.51314416E-02                    1_GWF-(1,10960)
         21          1         21      -3.8584518                    1_GWF-(1,26487) -3.50052098E-02                    1_GWF-(1,11194)
         22          1         22      -4.1675635                    1_GWF-(1,26486)  4.21853128E-02                    1_GWF-(1,10966)
         23          1         23      -3.8124794                    1_GWF-(1,26487)  3.52045217E-02                    1_GWF-(1,14799)
         24          1         24       3.8949451                    1_GWF-(1,11575)  3.22211279E-02                    1_GWF-(1,14799)
         25          1         25       3.0779910                    1_GWF-(1,11707)  3.36582501E-02                    1_GWF-(1,14799)
         26          1         26       3.4959530                    1_GWF-(1,26487) -3.29697484E-02                    1_GWF-(1,11206)
         27          1         27       3.4795111                    1_GWF-(1,26420)  3.75003284E-02                    1_GWF-(1,11206)
         28          1         28       2.5574336                    1_GWF-(1,26543)  4.38193727E-02                    1_GWF-(1,14799)
         29          1         29       2.2962103                    1_GWF-(1,11706)  3.85613429E-02                    1_GWF-(1,14798)
         30          1         30      -2.1762045                    1_GWF-(1,11618)  3.52222820E-02                    1_GWF-(1,14799)
         31          1         31      -2.4982842                    1_GWF-(1,11707) -3.36403358E-02                    1_GWF-(1,11206)
         32          1         32       2.7125104                    1_GWF-(1,26422)  4.49406242E-02                    1_GWF-(1,14799)
         33          1         33      -2.6153098                    1_GWF-(1,26422)  3.86091918E-02                    1_GWF-(1,14798)
         34          1         34      -2.6573601                    1_GWF-(1,26350)  3.64736254E-02                    1_GWF-(1,14799)
         35          1         35      -2.5461212                    1_GWF-(1,26422)  3.18081865E-02                    1_GWF-(1,14799)
         36          1         36      -1.9420382                    1_GWF-(1,26544)  3.52076320E-02                    1_GWF-(1,14799)
         37          1         37      -1.5243799                    1_GWF-(1,26486)  3.63669003E-02                    1_GWF-(1,14799)
         38          1         38      -1.7255428                    1_GWF-(1,11621)  2.57263999E-02                    1_GWF-(1,14801)
         39          1         39      -1.2768263                    1_GWF-(1,26649)  3.75357005E-02                    1_GWF-(1,14799)
         40          1         40       1.8741582                    1_GWF-(1,11621) -3.31755552E-02                    1_GWF-(1,11206)
         41          1         41       1.0984935                    1_GWF-(1,11569)  3.54642907E-02                    1_GWF-(1,14799)
         42          1         42      -1.6748492                    1_GWF-(1,11622) -3.94377195E-02                    1_GWF-(1,11206)
         43          1         43       1.2889899                    1_GWF-(1,26350)  4.86709166E-02                    1_GWF-(1,14799)
         44          1         44       1.2667732                    1_GWF-(1,26217) -4.15142613E-02                    1_GWF-(1,11206)
         45          1         45      -1.6298934                    1_GWF-(1,11622)  4.85996072E-02                    1_GWF-(1,14799)
         46          1         46     -0.82309823                    1_GWF-(1,16081)  5.03081179E-02                    1_GWF-(1,14801)
         47          1         47      -1.1777761                    1_GWF-(1,26217)  8.99316464E-02                    1_GWF-(1,14799)
         48          1         48      -1.3350485                    1_GWF-(1,26218) -8.17491617E-02                    1_GWF-(1,14799)
         49          1         49      -1.5277458                    1_GWF-(1,26217)      0.12687706                    1_GWF-(1,14799)
         50          1         50      -1.6453165                    1_GWF-(1,26218)     -0.15073459                    1_GWF-(1,14799)
         51          2          1      -166.37250                    1_GWF-(1,26519)     -0.23976463                    1_GWF-(1,26458)
         52          2          2      -63.295549                    1_GWF-(1,26513)  5.78183420E-02                    1_GWF-(1,26458)
         53          2          3      -38.395266                    1_GWF-(1,26637)  8.76380477E-02                    1_GWF-(1,14799)
         54          2          4      -35.184333                    1_GWF-(1,26665) -6.87340507E-02                    1_GWF-(1,14799)
         55          2          5      -23.233431                    1_GWF-(1,26622)      0.10837053                    1_GWF-(1,14799)
         56          2          6      -19.335318                    1_GWF-(1,26588) -9.89106539E-02                    1_GWF-(1,14799)
         57          2          7      -18.492783                    1_GWF-(1,26543)      0.15904617                    1_GWF-(1,14799)
         58          2          8      -13.308354                    1_GWF-(1,26486)     -0.15955814                    1_GWF-(1,14799)
         59          2          9      -9.7747198                    1_GWF-(1,26487)      0.15471167                    1_GWF-(1,14799)
         60          2         10      -7.2686247                    1_GWF-(1,26421)  5.61212725E-02                    1_GWF-(1,14801)
         61          2         11      -7.1783994                    1_GWF-(1,26350)  2.75897901E-02                    1_GWF-(1,14798)
         62          2         12      -4.3234973                    1_GWF-(1,26217)  6.71533245E-02                    1_GWF-(1,14799)
         63          2         13      -2.5098007                    1_GWF-(1,26622) -6.37519490E-02                    1_GWF-(1,14799)
         64          2         14      -1.8045330                    1_GWF-(1,26623)  5.93808389E-02                    1_GWF-(1,14799)
         65          2         15      -1.7266302                    1_GWF-(1,26622)  2.09427766E-02                    1_GWF-(1,14801)
         66          2         16      -1.6052865                    1_GWF-(1,25728)  5.44227397E-02                    1_GWF-(1,14798)
         67          2         17       2.0962838                    1_GWF-(1,26350)      0.12687808                    1_GWF-(1,14799)
         68          2         18       1.8953137                    1_GWF-(1,26422) -9.78086545E-02                    1_GWF-(1,14799)
         69          2         19       2.0045444                    1_GWF-(1,26588)  9.65899143E-02                    1_GWF-(1,14799)
         70          2         20       1.8391806                    1_GWF-(1,26543)  1.50947970E-02                    1_GWF-(1,14801)
         71          2         21       1.9880350                    1_GWF-(1,26588) -8.76411090E-02                    1_GWF-(1,14799)
         72          2         22       2.3320134                    1_GWF-(1,26543)      0.17184581                    1_GWF-(1,14799)
         73          2         23       1.8090115                    1_GWF-(1,26544)     -0.17757615                    1_GWF-(1,14799)
         74          2         24      -2.7263983                    1_GWF-(1,26487)      0.14486596                    1_GWF-(1,14799)
         75          2         25      -3.3016277                    1_GWF-(1,26486)  2.56934737E-02                    1_GWF-(1,14799)
         76          2         26      -3.5449936                    1_GWF-(1,26487)     -0.16289112                    1_GWF-(1,14799)
         77          2         27      -2.4809606                    1_GWF-(1,26420)      0.30670080                    1_GWF-(1,14799)
         78          2         28       1.6750601                    1_GWF-(1,26217)     -0.23845435                    1_GWF-(1,14799)
         79          2         29      -1.5300756                    1_GWF-(1,26327)      0.26201359                    1_GWF-(1,14799)
         80          2         30       1.4996716                    1_GWF-(1,26420)      0.18159167                    1_GWF-(1,14801)
         81          2         31      -1.1692439                    1_GWF-(1,26674)      0.19315906                    1_GWF-(1,14799)
         82          2         32      -1.0783797                    1_GWF-(1,26422)      0.14104881                    1_GWF-(1,14801)
         83          2         33      -1.1106132                    1_GWF-(1,26350)      0.11918331                    1_GWF-(1,14799)
         84          2         34      0.92438623                    1_GWF-(1,26350)      0.10270734                    1_GWF-(1,14801)
         85          2         35       1.3207268                    1_GWF-(1,26422)  7.44645536E-02                    1_GWF-(1,14800)
         86          2         36      0.90162787                    1_GWF-(1,26218)  5.48362260E-02                    1_GWF-(1,14801)
         87          2         37     -0.71837847                    1_GWF-(1,26350)  3.42032604E-02                    1_GWF-(1,14800)
         88          2         38      0.71686972                    1_GWF-(1,26350)  6.14063253E-02                    1_GWF-(1,14799)
         89          2         39      0.89306377                    1_GWF-(1,26422)  7.12886325E-02                    1_GWF-(1,14798)
         90          2         40     -0.93278211                    1_GWF-(1,26486)      0.14367518                    1_GWF-(1,14799)
         91          2         41     -0.99115490                    1_GWF-(1,26420)     -0.14864052                    1_GWF-(1,14799)
         92          2         42     -0.87756741                    1_GWF-(1,26421)      0.19207470                    1_GWF-(1,14799)
         93          2         43      0.95887878                    1_GWF-(1,26421)     -0.14708042                    1_GWF-(1,14799)
         94          2         44     -0.75918536                    1_GWF-(1,26218)      0.15707421                    1_GWF-(1,14799)
         95          2         45      -1.0229984                    1_GWF-(1,26420)      0.11126714                    1_GWF-(1,14801)
         96          2         46      0.70263969                    1_GWF-(1,26217)  8.66874259E-02                    1_GWF-(1,14800)
         97          2         47     -0.70111846                    1_GWF-(1,26663)  9.12101019E-02                    1_GWF-(1,14801)
         98          2         48     -0.58261152                    1_GWF-(1,26218)  7.45958047E-02                    1_GWF-(1,14800)
         99          2         49     -0.64299521                    1_GWF-(1,22783)  9.03986483E-02                    1_GWF-(1,14801)
        100          2         50     -0.51885882                    1_GWF-(1,26604)  8.80410411E-02                    1_GWF-(1,14800)
        101          3          1     -0.32082865                    1_GWF-(1,22768)  5.86293119E-02                    1_GWF-(1,14801)
        102          3          2      0.50371745                    1_GWF-(1,22783)      0.10702185                    1_GWF-(1,14800)
        103          3          3      0.49523770                    1_GWF-(1,26623)      0.13648026                    1_GWF-(1,14801)
        104          3          4      0.48526102                    1_GWF-(1,26649)  8.97560609E-02                    1_GWF-(1,14800)
        105          3          5      0.48069178                    1_GWF-(1,26421)      0.13306367                    1_GWF-(1,14801)
        106          3          6      0.39693807                    1_GWF-(1,26194)     -0.14576744                    1_GWF-(1,14801)
        107          3          7     -0.51649635                    1_GWF-(1,26350)      0.12871668                    1_GWF-(1,14801)
        108          3          8     -0.60258364                    1_GWF-(1,26421)      0.10268857                    1_GWF-(1,14800)
        109          3          9      0.57353598                    1_GWF-(1,26422)      0.11804164                    1_GWF-(1,14801)
        110          3         10      0.60366669                    1_GWF-(1,26350)  7.50369784E-02                    1_GWF-(1,14800)
        111          3         11      0.45830993                    1_GWF-(1,26486)  5.12672266E-02                    1_GWF-(1,14801)
        112          3         12     -0.60165524                    1_GWF-(1,26422)  3.58852950E-02                    1_GWF-(1,14799)
        113          3         13      0.40870686                    1_GWF-(1,26422)  3.33988341E-02                    1_GWF-(1,14798)
        114          3         14      0.42549283                    1_GWF-(1,26350)  5.10251386E-02                    1_GWF-(1,14799)
        115          3         15     -0.52708668                    1_GWF-(1,26350)  4.32454780E-02                    1_GWF-(1,14798)
        116          3         16     -0.54614324                    1_GWF-(1,26422)  7.60666717E-02                    1_GWF-(1,14799)
        117          3         17      0.43327195                    1_GWF-(1,26422)  4.69221777E-02                    1_GWF-(1,14800)
        118          3         18      0.44921196                    1_GWF-(1,26350)  6.18080296E-02                    1_GWF-(1,14801)
        119          3         19      0.42962557                    1_GWF-(1,26421)  6.76006553E-02                    1_GWF-(1,14800)
        120          3         20      0.44768757                    1_GWF-(1,26662)  7.30270789E-02                    1_GWF-(1,14801)
        121          3         21     -0.47583397                    1_GWF-(1,26420)  6.67171982E-02                    1_GWF-(1,14800)
        122          3         22     -0.53677883                    1_GWF-(1,11442)  8.24198214E-02                    1_GWF-(1,14801)
        123          3         23     -0.52110363                    1_GWF-(1,26217)  7.44926747E-02                    1_GWF-(1,14800)
        124          3         24     -0.43336599                    1_GWF-(1,26421)  6.22992168E-02                    1_GWF-(1,14801)
        125          3         25      0.71537511                    1_GWF-(1,26487)  5.27135572E-02                    1_GWF-(1,14799)
        126          3         26      0.87513039                    1_GWF-(1,26420) -2.53691014E-02                    1_GWF-(1,14799)
        127          3         27      0.77586449                    1_GWF-(1,26487)  2.93859437E-02                    1_GWF-(1,14801)
        128          3         28     -0.54967033                    1_GWF-(1,26487)  4.11216081E-02                    1_GWF-(1,14800)
        129          3         29     -0.62391183                    1_GWF-(1,26486)  4.68636078E-02                    1_GWF-(1,14801)
        130          3         30     -0.58828350                    1_GWF-(1,26544)  4.58186782E-02                    1_GWF-(1,14799)
        131          3         31     -0.54014908                    1_GWF-(1,26486) -3.09061643E-02                    1_GWF-(1,14799)
        132          3         32      0.61690853                    1_GWF-(1,26543)  1.82222562E-02                    1_GWF-(1,14801)
        133          3         33     -0.59572091                    1_GWF-(1,26543) -3.77309320E-02                    1_GWF-(1,10966)
        134          3         34     -0.57982292                    1_GWF-(1,26588) -4.94355545E-02                    1_GWF-(1,14799)
        135          3         35      0.54149669                    1_GWF-(1,26588)  5.87925366E-02                    1_GWF-(1,14799)
        136          3         36      0.44203484                    1_GWF-(1,26665) -4.08046043E-02                    1_GWF-(1,14799)
        137          3         37      0.45868482                    1_GWF-(1,26623)  2.50403090E-02                    1_GWF-(1,14799)
        138          3         38      0.61243305                    1_GWF-(1,26622) -1.96056454E-02                    1_GWF-(1,10966)
        139          3         39      0.47889695                    1_GWF-(1,26649) -4.19612749E-02                    1_GWF-(1,14799)
        140          3         40     -0.46799543                    1_GWF-(1,26649)  5.46793665E-02                    1_GWF-(1,14799)
        141          3         41     -0.46223384                    1_GWF-(1,26622) -3.73961400E-02                    1_GWF-(1,14799)
        142          3         42     -0.58773826                    1_GWF-(1,26665)  1.53980112E-02                    1_GWF-(1,10966)
        143          3         43     -0.56865044                    1_GWF-(1,26666)  2.98674296E-02                    1_GWF-(1,14799)
        144          3         44     -0.45353411                    1_GWF-(1,26665) -4.74446910E-02                    1_GWF-(1,14799)
        145          3         45      0.58203478                    1_GWF-(1,26665)  6.81057389E-02                    1_GWF-(1,14799)
        146          3         46      0.49599815                    1_GWF-(1,26666) -6.39740519E-02                    1_GWF-(1,14799)
        147          3         47     -0.32402180                    1_GWF-(1,25816)  7.73195646E-02                    1_GWF-(1,14799)
        148          3         48      0.54658098                    1_GWF-(1,11442) -6.03513079E-02                    1_GWF-(1,14799)
        149          3         49     -0.44047116                    1_GWF-(1,11442)  8.33486991E-02                    1_GWF-(1,14799)
        150          3         50     -0.38721716                    1_GWF-(1,26637) -6.21882413E-02                    1_GWF-(1,14799)
        151          4          1      -1.1543602                    1_GWF-(1,16215)  2.11194381E-02                    1_GWF-(1,14799)
        152          4          2     -0.88053281                    1_GWF-(1,16130) -6.17263378E-02                    1_GWF-(1,14799)
        153          4          3      0.42025399                    1_GWF-(1,16130)  9.12937685E-02                    1_GWF-(1,14799)
        154          4          4      0.48390425                    1_GWF-(1,16126) -6.62262904E-02                    1_GWF-(1,14799)
        155          4          5     -0.47132542                    1_GWF-(1,16130)  6.48656732E-02                    1_GWF-(1,14799)
        156          4          6      0.49627704                    1_GWF-(1,16130) -5.27992877E-02                    1_GWF-(1,14799)
        157          4          7      0.32321613                    1_GWF-(1,16126)  4.50288735E-02                    1_GWF-(1,14799)
        158          4          8     -0.32124155                    1_GWF-(1,26665) -2.17120864E-02                    1_GWF-(1,14799)
        159          4          9      0.33189870                    1_GWF-(1,26665) -9.69013493E-03                    1_GWF-(1,10966)
        160          4         10      0.31814304                    1_GWF-(1,26666)  2.46730218E-02                    1_GWF-(1,14799)
        161          4         11      0.31167925                    1_GWF-(1,26665) -3.25968444E-02                    1_GWF-(1,14799)
        162          4         12      0.24669181                    1_GWF-(1,26622)  3.23104242E-02                    1_GWF-(1,14799)
        163          4         13      0.26907140                    1_GWF-(1,26649)  1.20015186E-02                    1_GWF-(1,14801)
        164          4         14      0.30048061                    1_GWF-(1,26622) -9.37089908E-03                    1_GWF-(1,10966)
        165          4         15      0.24828709                    1_GWF-(1,26623)  2.73506134E-02                    1_GWF-(1,14799)
        166          4         16     -0.24609178                    1_GWF-(1,26623) -3.22911889E-02                    1_GWF-(1,14799)
        167          4         17     -0.20606916                    1_GWF-(1,26622)  2.95397203E-02                    1_GWF-(1,14799)
        168          4         18      0.25091104                    1_GWF-(1,11659)  1.48836864E-02                    1_GWF-(1,14801)
        169          4         19     -0.31737366                    1_GWF-(1,26543) -1.10709118E-02                    1_GWF-(1,10966)
        170          4         20     -0.37421790                    1_GWF-(1,26588)  1.61789531E-02                    1_GWF-(1,14799)
        171          4         21     -0.30854289                    1_GWF-(1,26543) -1.93742276E-02                    1_GWF-(1,14799)
        172          4         22      0.18041017                    1_GWF-(1,26486)  2.07878004E-02                    1_GWF-(1,14799)
        173          4         23      0.18901187                    1_GWF-(1,26487)  1.60301513E-02                    1_GWF-(1,14801)
        174          4         24      0.24568821                    1_GWF-(1,26486)  1.15406523E-02                    1_GWF-(1,14800)
        175          4         25      0.27646103                    1_GWF-(1,26487)  1.08822526E-02                    1_GWF-(1,14799)
        176          4         26      0.24698735                    1_GWF-(1,26486) -1.40169010E-02                    1_GWF-(1,14799)
        177          4         27      0.23116957                    1_GWF-(1,26487)  1.85549893E-02                    1_GWF-(1,14799)
        178          4         28      0.16351454                    1_GWF-(1,26420)  2.21511059E-02                    1_GWF-(1,14801)
        179          4         29      0.18551633                    1_GWF-(1,26218)  2.13737196E-02                    1_GWF-(1,14800)
        180          4         30      0.12441891                    1_GWF-(1,26217)  2.11240231E-02                    1_GWF-(1,14801)
        181          4         31      0.11844912                    1_GWF-(1,26486)  1.87176237E-02                    1_GWF-(1,14800)
        182          4         32  9.74144221E-02                    1_GWF-(1,11572)  1.95619740E-02                    1_GWF-(1,14801)
        183          4         33     -0.10840187                    1_GWF-(1,26544)  1.59817767E-02                    1_GWF-(1,14800)
        184          4         34     -0.15334921                    1_GWF-(1,26486)  1.70122987E-02                    1_GWF-(1,14801)
        185          4         35     -0.15455968                    1_GWF-(1,26350)  1.10463576E-02                    1_GWF-(1,14800)
        186          4         36     -0.19135099                    1_GWF-(1,26422)  1.46756470E-02                    1_GWF-(1,14799)
        187          4         37     -0.15893471                    1_GWF-(1,26350)  8.63941972E-03                    1_GWF-(1,14798)
        188          4         38     -0.13927880                    1_GWF-(1,26422)  1.24258143E-02                    1_GWF-(1,14799)
        189          4         39     -0.12609155                    1_GWF-(1,26350)  7.57663523E-03                    1_GWF-(1,10966)
        190          4         40     -0.10888151                    1_GWF-(1,26422) -8.12457216E-03                    1_GWF-(1,10966)
        191          4         41 -9.09305192E-02                    1_GWF-(1,26350)  1.10000178E-02                    1_GWF-(1,10966)
        192          4         42  8.23518929E-02                    1_GWF-(1,26350)  1.25150810E-02                    1_GWF-(1,14800)
        193          4         43      0.11216631                    1_GWF-(1,26422)  1.58707020E-02                    1_GWF-(1,14801)
        194          4         44      0.13045178                    1_GWF-(1,26350)  1.57632763E-02                    1_GWF-(1,14800)
        195          4         45      0.12467282                    1_GWF-(1,26421)  1.94744600E-02                    1_GWF-(1,14801)
        196          4         46  9.23456108E-02                    1_GWF-(1,26420)  1.82002432E-02                    1_GWF-(1,14800)
        197          4         47  8.65340845E-02                    1_GWF-(1,11572)  2.06437587E-02                    1_GWF-(1,14801)
        198          4         48  7.05624463E-02                    1_GWF-(1,26589)  1.57254741E-02                    1_GWF-(1,14800)
        199          4         49 -7.04147081E-02                    1_GWF-(1,11572)  1.81857978E-02                    1_GWF-(1,14801)
        200          4         50 -6.90549611E-02                    1_GWF-(1,26218)  1.50845690E-02                    1_GWF-(1,14800)
        201          5          1 -8.79434257E-02                    1_GWF-(1,11378)  6.47445428E-03                    1_GWF-(1,14801)
        202          5          2 -6.80362609E-02                    1_GWF-(1,11425) -2.10726411E-02                    1_GWF-(1,14801)
        203          5          3 -5.73653301E-02                    1_GWF-(1,26589)  2.26629153E-02                    1_GWF-(1,14801)
        204          5          4 -8.54389124E-02                    1_GWF-(1,26486)  1.19267752E-02                    1_GWF-(1,14800)
        205          5          5     -0.11677605                    1_GWF-(1,11369)  1.70093722E-02                    1_GWF-(1,14801)
        206          5          6      0.12305936                    1_GWF-(1,11369) -1.74753528E-02                    1_GWF-(1,14801)
        207          5          7     -0.11254615                    1_GWF-(1,26350)  1.36728359E-02                    1_GWF-(1,14801)
        208          5          8     -0.11621937                    1_GWF-(1,11369)  1.07526406E-02                    1_GWF-(1,14800)
        209          5          9      0.16284644                    1_GWF-(1,11369)  1.16865762E-02                    1_GWF-(1,14801)
        210          5         10  8.05497430E-02                    1_GWF-(1,11454)  6.94079334E-03                    1_GWF-(1,14800)
        211          5         11 -8.76156220E-02                    1_GWF-(1,11454)  4.40994734E-03                    1_GWF-(1,10966)
        212          5         12      0.14538102                    1_GWF-(1,11369)  8.61694812E-03                    1_GWF-(1,14799)
        213          5         13      0.11740275                    1_GWF-(1,26422)  6.40075951E-03                    1_GWF-(1,14798)
        214          5         14      0.11451749                    1_GWF-(1,26350)  9.30356589E-03                    1_GWF-(1,14799)
        215          5         15     -0.12791605                    1_GWF-(1,11453) -7.82230807E-03                    1_GWF-(1,14799)
        216          5         16      0.12940043                    1_GWF-(1,11453)  1.06163148E-02                    1_GWF-(1,14799)
        217          5         17  8.66778964E-02                    1_GWF-(1,11458)  6.95966244E-03                    1_GWF-(1,14800)
        218          5         18     -0.12812555                    1_GWF-(1,11453)  8.67187274E-03                    1_GWF-(1,14801)
        219          5         19      0.19207877                    1_GWF-(1,11453)  8.75898102E-03                    1_GWF-(1,14800)
        220          5         20     -0.10411173                    1_GWF-(1,11453)  9.65114939E-03                    1_GWF-(1,14801)
        221          5         21     -0.11061678                    1_GWF-(1,11458)  8.55162099E-03                    1_GWF-(1,14800)
        222          5         22      0.16935431                    1_GWF-(1,11453)  8.19255385E-03                    1_GWF-(1,14801)
        223          5         23     -0.12739369                    1_GWF-(1,26588)  5.84195344E-03                    1_GWF-(1,14799)
        224          5         24     -0.11550033                    1_GWF-(1,26543)  4.43011456E-03                    1_GWF-(1,14800)
        225          5         25      0.14838970                    1_GWF-(1,11453)  8.70006595E-03                    1_GWF-(1,14801)
        226          5         26      0.10141868                    1_GWF-(1,11458)  7.66201967E-03                    1_GWF-(1,14800)
        227          5         27 -9.81783354E-02                    1_GWF-(1,11453)  7.44440527E-03                    1_GWF-(1,14801)
        228          5         28     -0.13234310                    1_GWF-(1,11417)  8.18951388E-03                    1_GWF-(1,14799)
        229          5         29 -9.14501176E-02                    1_GWF-(1,11438) -5.80534677E-03                    1_GWF-(1,14799)
        230          5         30 -8.03047718E-02                    1_GWF-(1,11453)  4.03799093E-03                    1_GWF-(1,14799)
        231          5         31     -0.11094854                    1_GWF-(1,11417) -3.90164376E-03                    1_GWF-(1,10966)
        232          5         32  7.31778793E-02                    1_GWF-(1,11458)  5.16942655E-03                    1_GWF-(1,14801)
        233          5         33 -9.15212322E-02                    1_GWF-(1,11453)  7.96199159E-03                    1_GWF-(1,14799)
        234          5         34     -0.11363057                    1_GWF-(1,11417) -8.55506488E-03                    1_GWF-(1,14799)
        235          5         35 -8.26623677E-02                    1_GWF-(1,11438)  8.39979014E-03                    1_GWF-(1,14799)
        236          5         36 -7.83867282E-02                    1_GWF-(1,11453) -3.94008196E-03                    1_GWF-(1,14799)
        237          5         37 -8.56324509E-02                    1_GWF-(1,11417)  2.57912463E-03                    1_GWF-(1,10966)
        238          5         38 -7.23047595E-02                    1_GWF-(1,11438)  5.36759854E-03                    1_GWF-(1,14799)
        239          5         39 -8.20300125E-02                    1_GWF-(1,11453) -6.84294163E-03                    1_GWF-(1,14799)
        240          5         40 -6.98082586E-02                    1_GWF-(1,11417)  7.96791367E-03                    1_GWF-(1,14799)
        241          5         41 -6.77573582E-02                    1_GWF-(1,26487) -3.58183698E-03                    1_GWF-(1,14799)
        242          5         42 -7.00095854E-02                    1_GWF-(1,26665)  2.30853565E-03                    1_GWF-(1,10966)
        243          5         43 -4.96755667E-02                    1_GWF-(1,26666)  5.76199442E-03                    1_GWF-(1,14799)
        244          5         44 -5.31463164E-02                    1_GWF-(1,11438) -7.27039301E-03                    1_GWF-(1,14799)
        245          5         45  7.19840524E-02                    1_GWF-(1,11417)  9.58998989E-03                    1_GWF-(1,14799)
        246          5         46  5.17913650E-02                    1_GWF-(1,16130) -9.47825024E-03                    1_GWF-(1,14799)
        247          5         47 -6.62594423E-02                    1_GWF-(1,11438)  1.18478783E-02                    1_GWF-(1,14799)
        248          5         48  4.88451203E-02                    1_GWF-(1,11417) -9.87743216E-03                    1_GWF-(1,14799)
        249          5         49  9.68032921E-02                    1_GWF-(1,16130)  6.91297495E-03                    1_GWF-(1,14799)
        250          5         50     -0.10383889                    1_GWF-(1,11438) -9.00946873E-03                    1_GWF-(1,14799)
        251          6          1      0.10767397                    1_GWF-(1,11438)  7.42155500E-03                    1_GWF-(1,14799)
        252          6          2 -4.71435398E-02                    1_GWF-(1,16130) -8.83516965E-03                    1_GWF-(1,14799)
        253          6          3 -3.77783730E-02                    1_GWF-(1,11438)  9.92671412E-03                    1_GWF-(1,14799)
        254          6          4  7.39187082E-02                    1_GWF-(1,11438) -7.93679110E-03                    1_GWF-(1,14799)
        255          6          5 -3.59956477E-02                    1_GWF-(1,11438)  8.67113314E-03                    1_GWF-(1,14799)
        256          6          6 -3.68792819E-02                    1_GWF-(1,26665) -7.06712145E-03                    1_GWF-(1,14799)
        257          6          7 -4.93754235E-02                    1_GWF-(1,11442)  5.50796200E-03                    1_GWF-(1,14799)
        258          6          8 -4.41649184E-02                    1_GWF-(1,26665)  1.68394368E-03                    1_GWF-(1,14798)
        259          6          9  4.90419015E-02                    1_GWF-(1,26665) -1.94643223E-03                    1_GWF-(1,10966)
        260          6         10  5.07754151E-02                    1_GWF-(1,26487)  5.27650446E-03                    1_GWF-(1,14799)
        261          6         11  4.23863342E-02                    1_GWF-(1,26420) -4.85610067E-03                    1_GWF-(1,14799)
        262          6         12  4.15758392E-02                    1_GWF-(1,26622)  4.17769790E-03                    1_GWF-(1,14799)
        263          6         13  4.41663736E-02                    1_GWF-(1,11438)  1.70207776E-03                    1_GWF-(1,14801)
        264          6         14 -3.31117411E-02                    1_GWF-(1,26666) -1.96210549E-03                    1_GWF-(1,10966)
        265          6         15 -3.82243774E-02                    1_GWF-(1,26665)  3.97680697E-03                    1_GWF-(1,14799)
        266          6         16 -3.47922827E-02                    1_GWF-(1,26350) -4.24986486E-03                    1_GWF-(1,14799)
        267          6         17 -3.38263439E-02                    1_GWF-(1,11453)  3.84011405E-03                    1_GWF-(1,14799)
        268          6         18 -3.33948740E-02                    1_GWF-(1,11369)  2.46728634E-03                    1_GWF-(1,14801)
        269          6         19 -3.33836056E-02                    1_GWF-(1,26543) -2.43163410E-03                    1_GWF-(1,10966)
        270          6         20 -4.73165017E-02                    1_GWF-(1,26588)  1.56425836E-03                    1_GWF-(1,10966)
        271          6         21 -4.13475321E-02                    1_GWF-(1,26543) -2.08193089E-03                    1_GWF-(1,14799)
        272          6         22 -2.90494446E-02                    1_GWF-(1,26588)  3.24622568E-03                    1_GWF-(1,14799)
        273          6         23 -4.10466403E-02                    1_GWF-(1,11453)  2.73033524E-03                    1_GWF-(1,14801)
        274          6         24  3.24249107E-02                    1_GWF-(1,11453) -2.92573470E-03                    1_GWF-(1,10966)
        275          6         25 -2.54877611E-02                    1_GWF-(1,26218)  3.17283942E-03                    1_GWF-(1,14801)
        276          6         26 -3.99448714E-02                    1_GWF-(1,11453) -2.25015762E-03                    1_GWF-(1,10966)
        277          6         27  3.78848364E-02                    1_GWF-(1,26589)  1.42527658E-03                    1_GWF-(1,14799)
        278          6         28  4.32902864E-02                    1_GWF-(1,26588)  2.08623437E-03                    1_GWF-(1,14801)
        279          6         29 -4.01175035E-02                    1_GWF-(1,11453) -2.56384150E-03                    1_GWF-(1,10966)
        280          6         30  2.09171674E-02                    1_GWF-(1,11453)  2.85434870E-03                    1_GWF-(1,14801)
        281          6         31  3.05891835E-02                    1_GWF-(1,26486)  2.59688792E-03                    1_GWF-(1,14800)
        282          6         32 -3.67707963E-02                    1_GWF-(1,11453)  2.61555881E-03                    1_GWF-(1,14801)
        283          6         33  2.74721566E-02                    1_GWF-(1,11453)  1.86220773E-03                    1_GWF-(1,14800)
        284          6         34 -1.91816799E-02                    1_GWF-(1,26486)  2.12922556E-03                    1_GWF-(1,14801)
        285          6         35  2.34541040E-02                    1_GWF-(1,11369)  1.56596714E-03                    1_GWF-(1,14800)
        286          6         36 -2.58392859E-02                    1_GWF-(1,26422)  2.21141153E-03                    1_GWF-(1,14799)
        287          6         37 -2.61261060E-02                    1_GWF-(1,26350) -1.57422311E-03                    1_GWF-(1,14799)
        288          6         38 -2.83989347E-02                    1_GWF-(1,26422)  2.05313663E-03                    1_GWF-(1,14799)
        289          6         39 -2.74388076E-02                    1_GWF-(1,11369)  1.40277840E-03                    1_GWF-(1,10966)
        290          6         40 -1.70922489E-02                    1_GWF-(1,26422) -1.36191876E-03                    1_GWF-(1,10966)
        291          6         41  1.69473372E-02                    1_GWF-(1,11380)  1.80749318E-03                    1_GWF-(1,10966)
        292          6         42 -2.34881206E-02                    1_GWF-(1,11369)  1.66917229E-03                    1_GWF-(1,14800)
        293          6         43  1.50909070E-02                    1_GWF-(1,26421)  2.02507806E-03                    1_GWF-(1,14801)
        294          6         44  1.79318720E-02                    1_GWF-(1,26350)  2.22618105E-03                    1_GWF-(1,14800)
        295          6         45  1.67433061E-02                    1_GWF-(1,26421)  2.43297163E-03                    1_GWF-(1,14801)
        296          6         46 -1.47320125E-02                    1_GWF-(1,11437)  1.92084937E-03                    1_GWF-(1,14800)
        297          6         47  2.26072071E-02                    1_GWF-(1,11454)  2.82057561E-03                    1_GWF-(1,14801)
        298          6         48 -2.05697727E-02                    1_GWF-(1,11454)  2.56109530E-03                    1_GWF-(1,14800)
        299          6         49  1.27126065E-02                    1_GWF-(1,11417)  2.49307327E-03                    1_GWF-(1,14801)
        300          6         50  2.29229447E-02                    1_GWF-(1,11380)  2.31431457E-03                    1_GWF-(1,14800)
        301          7          1 -1.54669279E-02                    1_GWF-(1,11454)  1.15466490E-03                    1_GWF-(1,14801)
        302          7          2 -1.17850959E-02                    1_GWF-(1,26587) -3.53944361E-03                    1_GWF-(1,14801)
        303          7          3 -1.07725666E-02                    1_GWF-(1,26586)  3.33196491E-03                    1_GWF-(1,14801)
        304          7          4 -1.52363370E-02                    1_GWF-(1,26486)  1.66230417E-03                    1_GWF-(1,14800)
        305          7          5 -1.73925600E-02                    1_GWF-(1,11369)  2.18958870E-03                    1_GWF-(1,14801)
        306          7          6  1.77884722E-02                    1_GWF-(1,11369)  2.23871639E-03                    1_GWF-(1,14800)
        307          7          7 -1.79391903E-02                    1_GWF-(1,26350)  1.93880311E-03                    1_GWF-(1,14801)
        308          7          8 -1.45346786E-02                    1_GWF-(1,26422)  1.39266842E-03                    1_GWF-(1,14800)
        309          7          9  2.00428727E-02                    1_GWF-(1,11369)  1.47608756E-03                    1_GWF-(1,14801)
        310          7         10  1.43343784E-02                    1_GWF-(1,11454)  9.45081237E-04                    1_GWF-(1,14800)
        311          7         11 -1.66682022E-02                    1_GWF-(1,11454)  8.74371203E-04                    1_GWF-(1,10966)
        312          7         12  1.79320568E-02                    1_GWF-(1,26350)  1.43318438E-03                    1_GWF-(1,14799)
        313          7         13  2.00937821E-02                    1_GWF-(1,26422) -1.20706372E-03                    1_GWF-(1,14799)
        314          7         14  1.85529089E-02                    1_GWF-(1,26350)  1.55655098E-03                    1_GWF-(1,14799)
        315          7         15  1.70131150E-02                    1_GWF-(1,26422) -1.09829311E-03                    1_GWF-(1,14799)
        316          7         16  1.13386909E-02                    1_GWF-(1,26420)  1.35743957E-03                    1_GWF-(1,14799)
        317          7         17  1.45882886E-02                    1_GWF-(1,11458)  9.72748571E-04                    1_GWF-(1,14800)
        318          7         18 -1.47820472E-02                    1_GWF-(1,11458)  1.19842363E-03                    1_GWF-(1,14801)
        319          7         19  1.39065058E-02                    1_GWF-(1,26623)  1.13404959E-03                    1_GWF-(1,14800)
        320          7         20  1.73594163E-02                    1_GWF-(1,26622)  9.37517043E-04                    1_GWF-(1,14801)
        321          7         21  1.43702126E-02                    1_GWF-(1,26649)  7.25115766E-04                    1_GWF-(1,14799)
        322          7         22 -1.67668408E-02                    1_GWF-(1,26649)  7.85689692E-04                    1_GWF-(1,14800)
        323          7         23 -1.91278252E-02                    1_GWF-(1,26622)  1.43880503E-03                    1_GWF-(1,14801)
        324          7         24 -1.41980552E-02                    1_GWF-(1,11458)  1.39410563E-03                    1_GWF-(1,14800)
        325          7         25 -1.05970613E-02                    1_GWF-(1,26486)  1.46347206E-03                    1_GWF-(1,14801)
        326          7         26  1.34411251E-02                    1_GWF-(1,11458) -1.29419823E-03                    1_GWF-(1,10966)
        327          7         27 -1.04443877E-02                    1_GWF-(1,11458)  9.87611665E-04                    1_GWF-(1,14801)
        328          7         28  1.18644826E-02                    1_GWF-(1,26649)  9.11723363E-04                    1_GWF-(1,14799)
        329          7         29  1.19722551E-02                    1_GWF-(1,26622) -3.70428904E-04                    1_GWF-(1,10966)
        330          7         30  1.19362435E-02                    1_GWF-(1,26543)  9.30278716E-04                    1_GWF-(1,14801)
        331          7         31  9.27854464E-03                    1_GWF-(1,26487)  1.07207511E-03                    1_GWF-(1,14799)
        332          7         32 -1.03154627E-02                    1_GWF-(1,11438) -9.73447511E-04                    1_GWF-(1,14799)
        333          7         33  9.53868228E-03                    1_GWF-(1,26487)  1.11207609E-03                    1_GWF-(1,14799)
        334          7         34  1.04820299E-02                    1_GWF-(1,26420) -7.43300425E-04                    1_GWF-(1,14799)
        335          7         35  9.84422690E-03                    1_GWF-(1,26422)  4.04669190E-04                    1_GWF-(1,10966)
        336          7         36  9.92244910E-03                    1_GWF-(1,26350) -6.54276389E-04                    1_GWF-(1,10966)
        337          7         37 -1.01994758E-02                    1_GWF-(1,26588) -8.36846906E-04                    1_GWF-(1,14799)
        338          7         38 -9.71292249E-03                    1_GWF-(1,26589)  1.33975620E-03                    1_GWF-(1,14799)
        339          7         39 -9.13906541E-03                    1_GWF-(1,26588) -1.11557683E-03                    1_GWF-(1,14799)
        340          7         40 -1.05148699E-02                    1_GWF-(1,26665)  9.54560938E-04                    1_GWF-(1,14799)
        341          7         41 -1.22285762E-02                    1_GWF-(1,26666) -4.13215955E-04                    1_GWF-(1,10966)
        342          7         42 -1.12121306E-02                    1_GWF-(1,26665)  4.05716080E-04                    1_GWF-(1,10966)
        343          7         43  7.98914680E-03                    1_GWF-(1,26665)  1.00360724E-03                    1_GWF-(1,14799)
        344          7         44  7.43011962E-03                    1_GWF-(1,26666) -1.10311441E-03                    1_GWF-(1,14799)
        345          7         45  7.49514734E-03                    1_GWF-(1,26665)  1.38971853E-03                    1_GWF-(1,14799)
        346          7         46  6.46117823E-03                    1_GWF-(1,16130) -1.32547260E-03                    1_GWF-(1,14799)
        347          7         47  6.02338755E-03                    1_GWF-(1,26422)  1.49603842E-03                    1_GWF-(1,14799)
        348          7         48  6.48249553E-03                    1_GWF-(1,26218) -1.31068860E-03                    1_GWF-(1,14799)
        349          7         49  8.18817721E-03                    1_GWF-(1,16130)  1.31027752E-03                    1_GWF-(1,14799)
        350          7         50  9.26681489E-03                    1_GWF-(1,16126) -1.36928012E-03                    1_GWF-(1,14799)
        351          8          1 -1.77548996E-02                    1_GWF-(1,11455)  1.33220519E-03                    1_GWF-(1,14799)
        352          8          2 -7.06774408E-03                    1_GWF-(1,16130) -1.30602915E-03                    1_GWF-(1,14799)
        353          8          3  8.87918135E-03                    1_GWF-(1,11455)  1.41024548E-03                    1_GWF-(1,14799)
        354          8          4 -5.37397821E-03                    1_GWF-(1,11455) -1.23451899E-03                    1_GWF-(1,14799)
        355          8          5 -8.51822797E-03                    1_GWF-(1,11380)  1.26812857E-03                    1_GWF-(1,14799)
        356          8          6  5.65215187E-03                    1_GWF-(1,11380) -9.77737637E-04                    1_GWF-(1,14799)
        357          8          7 -6.01222302E-03                    1_GWF-(1,26666)  8.52512748E-04                    1_GWF-(1,14799)
        358          8          8 -6.10173815E-03                    1_GWF-(1,26665) -3.63181214E-04                    1_GWF-(1,14799)
        359          8          9  7.68906405E-03                    1_GWF-(1,26665) -3.00285919E-04                    1_GWF-(1,10966)
        360          8         10  8.48539902E-03                    1_GWF-(1,26666)  6.19786399E-04                    1_GWF-(1,14799)
        361          8         11  7.32924271E-03                    1_GWF-(1,26665) -7.45566613E-04                    1_GWF-(1,14799)
        362          8         12  6.36231294E-03                    1_GWF-(1,11380)  8.39121145E-04                    1_GWF-(1,14799)
        363          8         13  6.13791702E-03                    1_GWF-(1,26589) -5.27856836E-04                    1_GWF-(1,14799)
        364          8         14  5.72501746E-03                    1_GWF-(1,26588)  3.13680191E-04                    1_GWF-(1,14799)
        365          8         15 -5.74628322E-03                    1_GWF-(1,26350)  3.12061978E-04                    1_GWF-(1,10966)
        366          8         16 -5.21759217E-03                    1_GWF-(1,26421) -3.61243670E-04                    1_GWF-(1,14799)
        367          8         17 -5.44863719E-03                    1_GWF-(1,26420)  5.27987851E-04                    1_GWF-(1,14799)
        368          8         18 -4.46938493E-03                    1_GWF-(1,26487) -4.55058724E-04                    1_GWF-(1,14799)
        369          8         19 -4.35124693E-03                    1_GWF-(1,26486)  4.83137427E-04                    1_GWF-(1,14799)
        370          8         20 -4.29242141E-03                    1_GWF-(1,26487)  3.93734693E-04                    1_GWF-(1,14801)
        371          8         21 -5.09460542E-03                    1_GWF-(1,26543) -2.74922426E-04                    1_GWF-(1,10966)
        372          8         22 -4.86590684E-03                    1_GWF-(1,26622)  3.23080716E-04                    1_GWF-(1,14799)
        373          8         23 -4.58288040E-03                    1_GWF-(1,26649)  3.52209742E-04                    1_GWF-(1,14801)
        374          8         24 -3.59054645E-03                    1_GWF-(1,26217) -4.72190970E-04                    1_GWF-(1,10966)
        375          8         25  4.90309680E-03                    1_GWF-(1,11455)  5.30568916E-04                    1_GWF-(1,14801)
        376          8         26 -4.08859249E-03                    1_GWF-(1,11435) -5.39943828E-04                    1_GWF-(1,10966)
        377          8         27  4.27348487E-03                    1_GWF-(1,26623)  4.84362531E-04                    1_GWF-(1,14801)
        378          8         28  5.77496216E-03                    1_GWF-(1,26622)  2.83769860E-04                    1_GWF-(1,14800)
        379          8         29  4.92490387E-03                    1_GWF-(1,26649)  1.98331021E-04                    1_GWF-(1,14799)
        380          8         30 -4.14268044E-03                    1_GWF-(1,26649)  2.59605352E-04                    1_GWF-(1,10966)
        381          8         31 -4.91412691E-03                    1_GWF-(1,26622)  3.32644059E-04                    1_GWF-(1,14800)
        382          8         32 -3.60480403E-03                    1_GWF-(1,26623)  3.55048745E-04                    1_GWF-(1,14801)
        383          8         33 -3.38303216E-03                    1_GWF-(1,11416)  2.55890685E-04                    1_GWF-(1,14800)
        384          8         34 -2.53484006E-03                    1_GWF-(1,26486)  3.05640796E-04                    1_GWF-(1,14801)
        385          8         35 -3.04443778E-03                    1_GWF-(1,26350)  2.25721118E-04                    1_GWF-(1,14800)
        386          8         36 -4.10402574E-03                    1_GWF-(1,26422)  3.41861275E-04                    1_GWF-(1,14799)
        387          8         37 -4.21580951E-03                    1_GWF-(1,26350) -2.45426597E-04                    1_GWF-(1,14799)
        388          8         38 -4.46033547E-03                    1_GWF-(1,26422)  3.12669650E-04                    1_GWF-(1,14799)
        389          8         39 -3.83693463E-03                    1_GWF-(1,26350)  2.37121792E-04                    1_GWF-(1,10966)
        390          8         40 -2.71464889E-03                    1_GWF-(1,26422) -2.10550241E-04                    1_GWF-(1,10966)
        391          8         41  2.99279322E-03                    1_GWF-(1,11438)  2.70995217E-04                    1_GWF-(1,10966)
        392          8         42 -1.91003723E-03                    1_GWF-(1,11459)  2.50131164E-04                    1_GWF-(1,14800)
        393          8         43  2.51704912E-03                    1_GWF-(1,11458)  3.15782136E-04                    1_GWF-(1,14801)
        394          8         44 -3.72592422E-03                    1_GWF-(1,11458)  3.29585879E-04                    1_GWF-(1,14800)
        395          8         45  2.46461677E-03                    1_GWF-(1,26421)  3.39980123E-04                    1_GWF-(1,14801)
        396          8         46  2.42187282E-03                    1_GWF-(1,11459)  2.71796019E-04                    1_GWF-(1,14800)
        397          8         47 -4.52350685E-03                    1_GWF-(1,11458)  4.37445745E-04                    1_GWF-(1,14801)
        398          8         48  3.45819355E-03                    1_GWF-(1,11458)  3.86956696E-04                    1_GWF-(1,14800)
        399          8         49 -1.92713009E-03                    1_GWF-(1,11380)  3.57189919E-04                    1_GWF-(1,14801)
        400          8         50 -3.54266204E-03                    1_GWF-(1,11458)  3.64234590E-04                    1_GWF-(1,14800)
        401          9          1  3.77279462E-03                    1_GWF-(1,11458)  3.86500987E-04                    1_GWF-(1,14801)
        402          9          2 -1.76911372E-03                    1_GWF-(1,26588) -3.99265454E-04                    1_GWF-(1,14801)
        403          9          3 -2.75267986E-03                    1_GWF-(1,11458)  4.30989003E-04                    1_GWF-(1,14801)
        404          9          4  3.86928516E-03                    1_GWF-(1,11458)  2.88374455E-04                    1_GWF-(1,14800)
        405          9          5 -2.19791486E-03                    1_GWF-(1,11369)  3.28376472E-04                    1_GWF-(1,14801)
        406          9          6  2.41460636E-03                    1_GWF-(1,11369)  2.99485247E-04                    1_GWF-(1,14800)
        407          9          7 -2.73440276E-03                    1_GWF-(1,26350)  2.97120058E-04                    1_GWF-(1,14801)
        408          9          8 -2.18640940E-03                    1_GWF-(1,26422)  2.09660550E-04                    1_GWF-(1,14800)
        409          9          9  2.80819946E-03                    1_GWF-(1,11369)  2.11773992E-04                    1_GWF-(1,14801)
        410          9         10 -2.04917317E-03                    1_GWF-(1,11369)  1.39649368E-04                    1_GWF-(1,14800)
        411          9         11  2.01232345E-03                    1_GWF-(1,26422)  1.49126806E-04                    1_GWF-(1,10966)
        412          9         12  2.68638552E-03                    1_GWF-(1,26350)  2.12679678E-04                    1_GWF-(1,14799)
        413          9         13  2.80598839E-03                    1_GWF-(1,26422) -1.55065094E-04                    1_GWF-(1,14799)
        414          9         14 -2.26144463E-03                    1_GWF-(1,26622)  1.55309734E-04                    1_GWF-(1,14799)
        415          9         15 -2.55965471E-03                    1_GWF-(1,26649)  7.20231270E-05                    1_GWF-(1,14800)
        416          9         16 -1.75362259E-03                    1_GWF-(1,26622)  1.15658213E-04                    1_GWF-(1,10966)
        417          9         17 -1.61004079E-03                    1_GWF-(1,11416)  2.11018045E-04                    1_GWF-(1,14799)
        418          9         18 -2.64226614E-03                    1_GWF-(1,11453) -1.68402315E-04                    1_GWF-(1,14799)
        419          9         19 -1.97076849E-03                    1_GWF-(1,26422)  1.97842566E-04                    1_GWF-(1,14799)
        420          9         20 -2.18246806E-03                    1_GWF-(1,26420)  1.55305717E-04                    1_GWF-(1,14800)
        421          9         21 -2.87055515E-03                    1_GWF-(1,11453)  1.72650083E-04                    1_GWF-(1,14801)
        422          9         22 -2.10742447E-03                    1_GWF-(1,26420)  1.42695685E-04                    1_GWF-(1,14800)
        423          9         23 -2.52330917E-03                    1_GWF-(1,26622)  1.03448031E-04                    1_GWF-(1,10966)
        424          9         24 -2.70408842E-03                    1_GWF-(1,26649)  1.26859060E-04                    1_GWF-(1,14799)
        425          9         25 -2.24766254E-03                    1_GWF-(1,26544) -1.34539988E-04                    1_GWF-(1,14801)
        426          9         26 -2.24676777E-03                    1_GWF-(1,26486)  1.93901509E-04                    1_GWF-(1,14801)
        427          9         27  1.78635913E-03                    1_GWF-(1,11417)  1.73496641E-04                    1_GWF-(1,14800)
        428          9         28 -1.17454372E-03                    1_GWF-(1,11458)  1.76599188E-04                    1_GWF-(1,14801)
        429          9         29 -1.36983589E-03                    1_GWF-(1,11432) -1.72680334E-04                    1_GWF-(1,10966)
        430          9         30  1.80963384E-03                    1_GWF-(1,26589) -1.02238488E-04                    1_GWF-(1,14799)
        431          9         31  2.37970402E-03                    1_GWF-(1,26588)  7.88113490E-05                    1_GWF-(1,14799)
        432          9         32  1.83369734E-03                    1_GWF-(1,26543) -1.07267606E-04                    1_GWF-(1,10966)
        433          9         33  1.29032398E-03                    1_GWF-(1,26588)  1.51681899E-04                    1_GWF-(1,14801)
        434          9         34 -1.11923704E-03                    1_GWF-(1,11458) -1.71226219E-04                    1_GWF-(1,10966)
        435          9         35  1.34372941E-03                    1_GWF-(1,26350) -1.53753095E-04                    1_GWF-(1,14799)
        436          9         36  1.38182188E-03                    1_GWF-(1,26422)  1.91383871E-04                    1_GWF-(1,14799)
        437          9         37  1.09916172E-03                    1_GWF-(1,11454) -1.81233728E-04                    1_GWF-(1,14799)
        438          9         38 -1.34296309E-03                    1_GWF-(1,11438)  2.21735439E-04                    1_GWF-(1,14799)
        439          9         39 -9.04015588E-04                    1_GWF-(1,26214) -1.65648397E-04                    1_GWF-(1,14799)
        440          9         40 -1.56180390E-03                    1_GWF-(1,26665)  1.24434436E-04                    1_GWF-(1,14799)
        441          9         41 -1.80378917E-03                    1_GWF-(1,26666) -7.37461426E-05                    1_GWF-(1,10966)
        442          9         42 -1.51315417E-03                    1_GWF-(1,26665)  6.46482873E-05                    1_GWF-(1,14798)
        443          9         43  1.00024411E-03                    1_GWF-(1,26665)  1.50727483E-04                    1_GWF-(1,14799)
        444          9         44  1.07613748E-03                    1_GWF-(1,26666) -1.65021410E-04                    1_GWF-(1,14799)
        445          9         45  1.07144989E-03                    1_GWF-(1,26665)  2.09905695E-04                    1_GWF-(1,14799)
        446          9         46  8.77740269E-04                    1_GWF-(1,26350) -2.02407978E-04                    1_GWF-(1,14799)
        447          9         47  9.97616648E-04                    1_GWF-(1,11455)  2.23037544E-04                    1_GWF-(1,14799)
        448          9         48 -1.34458760E-03                    1_GWF-(1,11455) -1.99067018E-04                    1_GWF-(1,14799)
        449          9         49  1.05447976E-03                    1_GWF-(1,16130)  2.13205590E-04                    1_GWF-(1,14799)
        450          9         50  1.63570002E-03                    1_GWF-(1,11455) -2.09119099E-04                    1_GWF-(1,14799)
        451         10          1 -1.54512376E-03                    1_GWF-(1,11455)  2.19218213E-04                    1_GWF-(1,14799)
        452         10          2 -9.58923107E-04                    1_GWF-(1,16127) -1.97569567E-04                    1_GWF-(1,14799)
        453         10          3  9.24108328E-04                    1_GWF-(1,11455)  2.08921837E-04                    1_GWF-(1,14799)
        454         10          4  7.04271233E-04                    1_GWF-(1,11438) -1.90528390E-04                    1_GWF-(1,14799)
        455         10          5  6.76687078E-04                    1_GWF-(1,25815)  1.91425462E-04                    1_GWF-(1,14799)
        456         10          6 -8.30798234E-04                    1_GWF-(1,26665) -1.45111690E-04                    1_GWF-(1,14799)
        457         10          7 -8.98012062E-04                    1_GWF-(1,26666)  1.24502254E-04                    1_GWF-(1,14799)
        458         10          8 -8.07449493E-04                    1_GWF-(1,26665) -5.30838908E-05                    1_GWF-(1,14799)
        459         10          9  1.09335469E-03                    1_GWF-(1,26665) -5.06288325E-05                    1_GWF-(1,10966)
        460         10         10  1.26200560E-03                    1_GWF-(1,26666)  8.53987087E-05                    1_GWF-(1,14799)
        461         10         11  1.08751709E-03                    1_GWF-(1,26665) -1.07856639E-04                    1_GWF-(1,14799)
        462         10         12  7.95321001E-04                    1_GWF-(1,26543)  1.20754698E-04                    1_GWF-(1,14799)
[...]
        684         14         34  1.76122498E-05                    1_GWF-(1,11460)  8.05780483E-07                    1_GWF-(1,14800)
        685         14         35  1.70203149E-05                    1_GWF-(1,11424)  9.09855663E-07                    1_GWF-(1,14799)
        686         14         36  2.16884386E-05                    1_GWF-(1,11440)  6.67610704E-07                    1_GWF-(1,14798)
        687         14         37 -1.84224967E-05                    1_GWF-(1,11440)  7.77116024E-07                    1_GWF-(1,14799)
        688         14         38 -1.56215400E-05                    1_GWF-(1,26487)  5.36373272E-07                    1_GWF-(1,14801)
        689         14         39  1.55288910E-05                    1_GWF-(1,11440)  6.01245772E-07                    1_GWF-(1,14800)
        690         14         40 -1.41549868E-05                    1_GWF-(1,11440)  1.11714581E-06                    1_GWF-(1,14799)
        691         14         41 -1.35775028E-05                    1_GWF-(1,11454)  7.41458646E-07                    1_GWF-(1,14798)
        692         14         42  1.79892885E-05                    1_GWF-(1,11440)  8.32920878E-07                    1_GWF-(1,14799)
        693         14         43 -1.85228535E-05                    1_GWF-(1,11440) -6.05698150E-07                    1_GWF-(1,10966)
        694         14         44 -1.41520631E-05                    1_GWF-(1,11443)  7.21477664E-07                    1_GWF-(1,10966)
        695         14         45  1.13863816E-05                    1_GWF-(1,11482)  6.57442319E-07                    1_GWF-(1,14801)
        696         14         46  1.20724902E-05                    1_GWF-(1,26622)  3.45722355E-07                    1_GWF-(1,14798)
        697         14         47  1.11456282E-05                    1_GWF-(1,26649)  5.93353850E-07                    1_GWF-(1,10966)
        698         14         48  1.18325296E-05                    1_GWF-(1,12187)  8.06653111E-07                    1_GWF-(1,14801)
        699         14         49  1.52748720E-05                    1_GWF-(1,11441)  7.89167479E-07                    1_GWF-(1,14800)
        700         14         50 -1.00225157E-05                    1_GWF-(1,12187)  9.36458197E-07                    1_GWF-(1,14801)
        701         15          1  8.55081446E-06                    1_GWF-(1,12187)  1.45586720E-06                    1_GWF-(1,14800)
        702         15          2 -7.50749756E-06                    1_GWF-(1,26589)  1.61058288E-06                    1_GWF-(1,14801)
        703         15          3 -1.34265998E-05                    1_GWF-(1,12187) -7.34777254E-07                    1_GWF-(1,14801)
        704         15          4 -9.65947103E-06                    1_GWF-(1,26649)  1.82892582E-07                    1_GWF-(1,10966)
        705         15          5  9.79902681E-06                    1_GWF-(1,12187)  8.19394206E-07                    1_GWF-(1,14801)
        706         15          6 -7.32504593E-06                    1_GWF-(1,26649)  8.85944407E-07                    1_GWF-(1,14800)
        707         15          7 -1.01093191E-05                    1_GWF-(1,12187)  9.51407944E-07                    1_GWF-(1,14801)
        708         15          8  1.24736281E-05                    1_GWF-(1,11417)  6.74855065E-07                    1_GWF-(1,14800)
        709         15          9 -9.76968117E-06                    1_GWF-(1,11456)  2.56949351E-07                    1_GWF-(1,14798)
        710         15         10  8.81525394E-06                    1_GWF-(1,26589)  4.62005575E-07                    1_GWF-(1,14799)
        711         15         11 -1.08368808E-05                    1_GWF-(1,11438)  7.06717452E-07                    1_GWF-(1,14800)
        712         15         12 -1.10574093E-05                    1_GWF-(1,11456)  7.52103544E-07                    1_GWF-(1,14801)
        713         15         13  1.17117172E-05                    1_GWF-(1,11460) -3.92258220E-07                    1_GWF-(1,14801)
        714         15         14 -1.12982632E-05                    1_GWF-(1,11460)  3.52155851E-07                    1_GWF-(1,10966)
        715         15         15  9.00553985E-06                    1_GWF-(1,26487)  3.57857742E-07                    1_GWF-(1,14799)
        716         15         16  1.00594746E-05                    1_GWF-(1,26486)  3.30918679E-07                    1_GWF-(1,14800)
        717         15         17 -9.65285221E-06                    1_GWF-(1,11460)  3.70136312E-07                    1_GWF-(1,14801)
        718         15         18 -7.43694436E-06                    1_GWF-(1,26422)  3.09590259E-07                    1_GWF-(1,14799)
        719         15         19 -9.50337628E-06                    1_GWF-(1,26350) -3.05811036E-07                    1_GWF-(1,14799)
        720         15         20 -1.55818939E-05                    1_GWF-(1,11460)  5.30083506E-07                    1_GWF-(1,14799)
        721         15         21  1.65694903E-05                    1_GWF-(1,11460)  4.18548563E-07                    1_GWF-(1,14800)
        722         15         22  1.05625531E-05                    1_GWF-(1,11459)  7.69667946E-07                    1_GWF-(1,14801)
        723         15         23 -9.40815801E-06                    1_GWF-(1,11438)  8.03139923E-07                    1_GWF-(1,14800)
        724         15         24 -1.28932694E-05                    1_GWF-(1,11459)  1.00649896E-06                    1_GWF-(1,14801)
        725         15         25  1.16178477E-05                    1_GWF-(1,11459)  8.27618157E-07                    1_GWF-(1,14800)
        726         15         26  1.19740527E-05                    1_GWF-(1,11482)  7.95217770E-07                    1_GWF-(1,14801)
        727         15         27  8.95803426E-06                    1_GWF-(1,11444)  5.19861095E-07                    1_GWF-(1,14800)
        728         15         28  7.21096696E-06                    1_GWF-(1,11437)  3.00331202E-07                    1_GWF-(1,14801)
        729         15         29  9.69972013E-06                    1_GWF-(1,11440)  2.87520769E-07                    1_GWF-(1,14799)
        730         15         30  1.01039770E-05                    1_GWF-(1,11439) -4.74180132E-07                    1_GWF-(1,14801)
        731         15         31 -1.16607651E-05                    1_GWF-(1,11439)  7.82841239E-07                    1_GWF-(1,14801)
        732         15         32  8.53956097E-06                    1_GWF-(1,11440) -7.40088903E-07                    1_GWF-(1,14801)
        733         15         33  1.28566900E-05                    1_GWF-(1,11439)  6.93159739E-07                    1_GWF-(1,14801)
        734         15         34 -9.83574871E-06                    1_GWF-(1,11439)  5.31284442E-07                    1_GWF-(1,14800)
        735         15         35 -9.88314431E-06                    1_GWF-(1,11460)  4.24838888E-07                    1_GWF-(1,14801)
        736         15         36 -1.00870701E-05                    1_GWF-(1,11459)  3.26299785E-07                    1_GWF-(1,14799)
        737         15         37  8.66126462E-06                    1_GWF-(1,11459)  1.85091330E-07                    1_GWF-(1,14800)
        738         15         38 -7.77698013E-06                    1_GWF-(1,11420)  3.99785860E-07                    1_GWF-(1,14801)
        739         15         39 -1.23475420E-05                    1_GWF-(1,11459)  3.34229217E-07                    1_GWF-(1,14799)
        740         15         40  1.26150923E-05                    1_GWF-(1,11459) -4.35730923E-07                    1_GWF-(1,14799)
        741         15         41 -9.22814700E-06                    1_GWF-(1,11459)  6.76299624E-07                    1_GWF-(1,14799)
        742         15         42 -8.62061867E-06                    1_GWF-(1,11463) -7.17991410E-07                    1_GWF-(1,14799)
        743         15         43  1.45379255E-05                    1_GWF-(1,11459)  7.53949947E-07                    1_GWF-(1,14799)
        744         15         44  1.18088500E-05                    1_GWF-(1,11456) -4.39918295E-07                    1_GWF-(1,14799)
        745         15         45 -1.03439063E-05                    1_GWF-(1,11437)  9.53271370E-08                    1_GWF-(1,14801)
        746         15         46 -1.27557464E-05                    1_GWF-(1,11439)  5.33011517E-07                    1_GWF-(1,14799)
        747         15         47 -1.36021484E-05                    1_GWF-(1,11459) -7.00150239E-07                    1_GWF-(1,14799)
        748         15         48 -1.19273410E-05                    1_GWF-(1,11456)  8.58382980E-07                    1_GWF-(1,14799)
        749         15         49  2.04939473E-05                    1_GWF-(1,11459) -7.89881891E-07                    1_GWF-(1,14799)
        750         15         50  3.83773240E-05                    1_GWF-(1,11456)  1.09061882E-06                    1_GWF-(1,14799)
        751         16          1 -3.69135454E-05                    1_GWF-(1,11456) -8.56624022E-07                    1_GWF-(1,14799)
        752         16          2 -1.95287688E-05                    1_GWF-(1,11459)  7.78980160E-07                    1_GWF-(1,14799)
        753         16          3  1.25594141E-05                    1_GWF-(1,11456) -3.35198136E-07                    1_GWF-(1,14799)
        754         16          4  1.13792263E-05                    1_GWF-(1,11462)  7.83968868E-08                    1_GWF-(1,14798)
        755         16          5  9.68704745E-06                    1_GWF-(1,11441)  5.23995743E-07                    1_GWF-(1,14799)
        756         16          6  8.68496127E-06                    1_GWF-(1,11437) -6.72494299E-07                    1_GWF-(1,14799)
        757         16          7 -9.60875243E-06                    1_GWF-(1,11456)  7.18052678E-07                    1_GWF-(1,14799)
        758         16          8 -9.74134011E-06                    1_GWF-(1,11459) -5.11220201E-07                    1_GWF-(1,14799)
        759         16          9  6.36559521E-06                    1_GWF-(1,11467)  2.04001642E-07                    1_GWF-(1,14799)
        760         16         10  6.58092806E-06                    1_GWF-(1,11459)  3.15891731E-07                    1_GWF-(1,14799)
        761         16         11 -5.39207195E-06                    1_GWF-(1,11467) -5.66604931E-07                    1_GWF-(1,14799)
        762         16         12 -6.84447990E-06                    1_GWF-(1,11380)  6.74062232E-07                    1_GWF-(1,14799)
        763         16         13  5.71803124E-06                    1_GWF-(1,11419) -4.41834464E-07                    1_GWF-(1,14799)
        764         16         14 -6.00634373E-06                    1_GWF-(1,11459)  3.47210230E-07                    1_GWF-(1,14799)
        765         16         15 -5.69488001E-06                    1_GWF-(1,11380)  1.62974188E-07                    1_GWF-(1,14801)
        766         16         16  4.78728932E-06                    1_GWF-(1,11460)  9.89913897E-08                    1_GWF-(1,14800)
        767         16         17  3.71327931E-06                    1_GWF-(1,11439)  2.08163673E-07                    1_GWF-(1,14799)
        768         16         18 -4.67298912E-06                    1_GWF-(1,11460) -1.98437975E-07                    1_GWF-(1,14799)
        769         16         19  3.36574141E-06                    1_GWF-(1,11456)  1.69632229E-07                    1_GWF-(1,14799)
        770         16         20  5.38354480E-06                    1_GWF-(1,11439)  1.51787633E-07                    1_GWF-(1,14801)
        771         16         21  5.43058868E-06                    1_GWF-(1,11440) -8.87306587E-08                    1_GWF-(1,14799)
        772         16         22  3.10289742E-06                    1_GWF-(1,11382)  2.01679079E-07                    1_GWF-(1,14799)
        773         16         23 -3.07361562E-06                    1_GWF-(1,11456)  1.60266138E-07                    1_GWF-(1,14798)
        774         16         24 -3.63812406E-06                    1_GWF-(1,11434)  1.92676807E-07                    1_GWF-(1,14799)
        775         16         25 -3.03078632E-06                    1_GWF-(1,11440)  2.07094798E-07                    1_GWF-(1,14801)
        776         16         26 -3.75502178E-06                    1_GWF-(1,11456)  2.38580641E-07                    1_GWF-(1,14800)
        777         16         27  4.07963879E-06                    1_GWF-(1,11456)  2.81692846E-07                    1_GWF-(1,14801)
        778         16         28  4.92773330E-06                    1_GWF-(1,11459)  2.45786090E-07                    1_GWF-(1,14800)
        779         16         29 -3.06164106E-06                    1_GWF-(1,11459)  2.57010407E-07                    1_GWF-(1,14801)
        780         16         30 -4.15249140E-06                    1_GWF-(1,11460)  1.35081014E-07                    1_GWF-(1,14800)
        781         16         31 -1.91527886E-06                    1_GWF-(1,10737)  8.39792886E-08                    1_GWF-(1,14799)
        782         16         32  3.41293776E-06                    1_GWF-(1,11460)  1.21162476E-07                    1_GWF-(1,14801)
        783         16         33 -1.64462771E-06                    1_GWF-(1,26622)  1.46946271E-07                    1_GWF-(1,14800)
        784         16         34 -1.50195824E-06                    1_GWF-(1,11486)  1.64743126E-07                    1_GWF-(1,14801)
        785         16         35  2.53785775E-06                    1_GWF-(1,11460)  1.23306377E-07                    1_GWF-(1,14800)
        786         16         36 -1.92084227E-06                    1_GWF-(1,11460)  8.60424780E-08                    1_GWF-(1,14799)
        787         16         37 -1.52264971E-06                    1_GWF-(1,15752)  5.42277514E-08                    1_GWF-(1,14801)
        788         16         38 -2.46998453E-06                    1_GWF-(1,11440)  1.01019354E-07                    1_GWF-(1,14800)
        789         16         39 -2.52695341E-06                    1_GWF-(1,11460)  1.66386108E-07                    1_GWF-(1,14801)
        790         16         40 -1.36476545E-06                    1_GWF-(1,15752)  1.27648393E-07                    1_GWF-(1,14800)
        791         16         41  2.30914935E-06                    1_GWF-(1,11438)  1.49087848E-07                    1_GWF-(1,14799)
        792         16         42  1.85406812E-06                    1_GWF-(1,11440)  6.40727650E-08                    1_GWF-(1,14798)
        793         16         43 -1.12693666E-06                    1_GWF-(1,11459)  5.16169781E-08                    1_GWF-(1,14799)
        794         16         44 -1.42062470E-06                    1_GWF-(1,11440)  7.24071172E-08                    1_GWF-(1,14801)
        795         16         45 -1.03947570E-06                    1_GWF-(1,11443)  6.66149094E-08                    1_GWF-(1,14798)
        796         16         46 -1.34266250E-06                    1_GWF-(1,12186)  7.92224916E-08                    1_GWF-(1,14799)
        797         16         47 -1.31685193E-06                    1_GWF-(1,11417)  4.36697645E-08                    1_GWF-(1,14798)
        798         16         48  1.43662318E-06                    1_GWF-(1,12186)  6.10603321E-08                    1_GWF-(1,10966)
        799         16         49  9.42632046E-07                    1_GWF-(1,26486)  7.38123292E-08                    1_GWF-(1,14801)
        800         17          1 -8.89886995E-07                    1_GWF-(1,12187)  5.37462829E-08                    1_GWF-(1,14800)
 --------------------------------------------------------------------------------------------------------------------------------------


 UBDSV1 SAVING     FLOW-JA-FACE ON UNIT   1020 AT TIME STEP      1, STRESS PERIOD      1
 UBDSV06 SAVING       DATA-SPDIS IN MODEL ML               PACKAGE NPF             CONNECTED TO MODEL ML               PACKAGE NPF              ON UNIT   1020 AT TIME STEP      1, STRESS PERIOD      1
 UBDSV06 SAVING              WEL IN MODEL ML               PACKAGE ML              CONNECTED TO MODEL ML               PACKAGE WEL_0            ON UNIT   1020 AT TIME STEP      1, STRESS PERIOD      1
 UBDSV06 SAVING              DRN IN MODEL ML               PACKAGE ML              CONNECTED TO MODEL ML               PACKAGE DRN_0            ON UNIT   1020 AT TIME STEP      1, STRESS PERIOD      1
 UBDSV06 SAVING              RIV IN MODEL ML               PACKAGE ML              CONNECTED TO MODEL ML               PACKAGE RIV_0            ON UNIT   1020 AT TIME STEP      1, STRESS PERIOD      1
 UBDSV06 SAVING              GHB IN MODEL ML               PACKAGE ML              CONNECTED TO MODEL ML               PACKAGE GHB_0            ON UNIT   1020 AT TIME STEP      1, STRESS PERIOD      1
 UBDSV06 SAVING              RCH IN MODEL ML               PACKAGE ML              CONNECTED TO MODEL ML               PACKAGE RCHA_0           ON UNIT   1020 AT TIME STEP      1, STRESS PERIOD      1

 HEAD WILL BE SAVED ON UNIT 1021 AT END OF TIME STEP    1, STRESS PERIOD    1


  VOLUME BUDGET FOR ENTIRE MODEL AT END OF TIME STEP    1, STRESS PERIOD   1
  ---------------------------------------------------------------------------------------------------

     CUMULATIVE VOLUME      L**3       RATES FOR THIS TIME STEP      L**3/T          PACKAGE NAME    
     ------------------                 ------------------------                     ----------------

           IN:                                      IN:
           ---                                      ---
                 WEL =           0.0000                   WEL =           0.0000     WEL_0           
                 DRN =           0.0000                   DRN =           0.0000     DRN_0           
                 RIV =           1.1048                   RIV =           1.1048     RIV_0           
                 GHB =           1.4542                   GHB =           1.4542     GHB_0           
                 RCH =           0.8264                   RCH =           0.8264     RCHA_0          

            TOTAL IN =           3.3854              TOTAL IN =           3.3854

          OUT:                                     OUT:
          ----                                     ----
                 WEL =           0.1543                   WEL =           0.1543     WEL_0           
                 DRN =           0.1754                   DRN =           0.1754     DRN_0           
                 RIV =           2.9136                   RIV =           2.9136     RIV_0           
                 GHB =           0.1422                   GHB =           0.1422     GHB_0           
                 RCH =           0.0000                   RCH =           0.0000     RCHA_0          

           TOTAL OUT =           3.3854             TOTAL OUT =           3.3854

            IN - OUT =      -1.4117E-06              IN - OUT =      -1.4117E-06

 PERCENT DISCREPANCY =          -0.00     PERCENT DISCREPANCY =          -0.00




         TIME SUMMARY AT END OF TIME STEP    1 IN STRESS PERIOD    1
                    SECONDS     MINUTES      HOURS       DAYS        YEARS
                    -----------------------------------------------------------
   TIME STEP LENGTH  1.0000     1.66667E-02 2.77778E-04 1.15741E-05 3.16881E-08
 STRESS PERIOD TIME  1.0000     1.66667E-02 2.77778E-04 1.15741E-05 3.16881E-08
         TOTAL TIME  1.0000     1.66667E-02 2.77778E-04 1.15741E-05 3.16881E-08


end timestep

