                                   MODFLOW 6
                U.S. GEOLOGICAL SURVEY MODULAR HYDROLOGIC MODEL
                          GROUNDWATER FLOW MODEL (GWF)
                            VERSION 6.2.2 07/30/2021

   MODFLOW 6 compiled Jul 31 2021 14:22:53 with IFORT compiler (ver. 19.10.3)

This software has been approved for release by the U.S. Geological 
Survey (USGS). Although the software has been subjected to rigorous 
review, the USGS reserves the right to update the software as needed 
pursuant to further analysis and review. No warranty, expressed or 
implied, is made by the USGS or the U.S. Government as to the 
functionality of the software and related material nor shall the 
fact of release constitute any such warranty. Furthermore, the 
software is released on condition that neither the USGS nor the U.S. 
Government shall be held liable for any damages resulting from its 
authorized or unauthorized use. Also refer to the USGS Water 
Resources Software User Rights Notice for complete use, copyright, 
and distribution information.


System command used to initiate simulation:
mf6

MODFLOW was compiled using uniform precision.

Real Variables
  KIND: 8
  TINY (smallest non-zero value):    2.225074-308
  HUGE (largest value):    1.797693+308
  PRECISION: 15
  BIT SIZE: 64

Integer Variables
  KIND: 4
  HUGE (largest value): 2147483647
  BIT SIZE: 32

Long Integer Variables
  KIND: 8
  HUGE (largest value): 9223372036854775807
  BIT SIZE: 64

Logical Variables
  KIND: 4
  BIT SIZE: 32
 

 OPENED ./ml.disv
 FILE TYPE:DISV6                  UNIT 1005   STATUS:OLD                 
 FORMAT:FORMATTED              ACCESS:SEQUENTIAL          
 ACTION:READ                


 OPENED ./ml.ic
 FILE TYPE:IC6                    UNIT 1006   STATUS:OLD                 
 FORMAT:FORMATTED              ACCESS:SEQUENTIAL          
 ACTION:READ                


 OPENED ./ml.npf
 FILE TYPE:NPF6                   UNIT 1007   STATUS:OLD                 
 FORMAT:FORMATTED              ACCESS:SEQUENTIAL          
 ACTION:READ                


 OPENED ./ml.ghb
 FILE TYPE:GHB6                   UNIT 1008   STATUS:OLD                 
 FORMAT:FORMATTED              ACCESS:SEQUENTIAL          
 ACTION:READ                


 OPENED ./ml.rcha
 FILE TYPE:RCH6                   UNIT 1009   STATUS:OLD                 
 FORMAT:FORMATTED              ACCESS:SEQUENTIAL          
 ACTION:READ                


 OPENED ./ml.obs
 FILE TYPE:OBS6                   UNIT 1010   STATUS:OLD                 
 FORMAT:FORMATTED              ACCESS:SEQUENTIAL          
 ACTION:READ                


 OPENED ./ml.oc
 FILE TYPE:OC6                    UNIT 1011   STATUS:OLD                 
 FORMAT:FORMATTED              ACCESS:SEQUENTIAL          
 ACTION:READ                


 OPENED ml.wel
 FILE TYPE:WEL6                   UNIT 1012   STATUS:OLD                 
 FORMAT:FORMATTED              ACCESS:SEQUENTIAL          
 ACTION:READ                


 OPENED ml.drn
 FILE TYPE:DRN6                   UNIT 1013   STATUS:OLD                 
 FORMAT:FORMATTED              ACCESS:SEQUENTIAL          
 ACTION:READ                


 OPENED ml.riv
 FILE TYPE:RIV6                   UNIT 1014   STATUS:OLD                 
 FORMAT:FORMATTED              ACCESS:SEQUENTIAL          
 ACTION:READ                


 DISV -- VERTEX GRID DISCRETIZATION PACKAGE, VERSION 1 : 12/23/2015 - INPUT READ FROM UNIT 1005


 # File generated by Flopy version 3.3.5 on 04/28/2022 at 15:58:30.

 PROCESSING DISCRETIZATION OPTIONS
    MODEL LENGTH UNIT IS METERS
    XORIGIN SPECIFIED AS     405575.681000000    
    YORIGIN SPECIFIED AS     6423306.54000000    
 END OF DISCRETIZATION OPTIONS

 PROCESSING DISCRETIZATION DIMENSIONS
   NLAY = 1
   NCPL = 26674
   NVERT = 27090
 END OF DISCRETIZATION DIMENSIONS

 PROCESSING GRIDDATA
 END PROCESSING GRIDDATA

 PROCESSING VERTICES
   SUCCESSFULLY READ 27090 (X,Y) COORDINATES
   MINIMUM X COORDINATE =     405575.681000000    
   MAXIMUM X COORDINATE =     413975.681000000    
   MINIMUM Y COORDINATE =     6423306.54000000    
   MAXIMUM Y COORDINATE =     6432506.54000000    
 END PROCESSING VERTICES

 PROCESSING CELL2D
   SUCCESSFULLY READ 26674 CELL2D INFORMATION ENTRIES
   MINIMUM X CELL CENTER =     405675.681000000    
   MAXIMUM X CELL CENTER =     413875.681000000    
   MINIMUM Y CELL CENTER =     6423406.54000000    
   MAXIMUM Y CELL CENTER =     6432406.54000000    
   MAXIMUM NUMBER OF CELL2D VERTICES IS 6 FOR CELL 208
 END PROCESSING VERTICES

 NPF -- NODE PROPERTY FLOW PACKAGE, VERSION 1, 3/30/2015 INPUT READ FROM UNIT 1007


 # File generated by Flopy version 3.3.5 on 04/28/2022 at 15:58:32.
 PROCESSING NPF OPTIONS
    CELL-BY-CELL FLOW INFORMATION WILL BE SAVED TO BINARY FILE WHENEVER ICBCFL IS NOT ZERO.
    SPECIFIC DISCHARGE WILL BE CALCULATED AT CELL CENTERS AND WRITTEN TO DATA-SPDIS IN BUDGET FILE WHEN REQUESTED.
 END OF NPF OPTIONS

 WEL   -- WEL PACKAGE, VERSION 8, 2/22/2014 INPUT READ FROM UNIT 1012
 # File generated by Flopy version 3.3.5 on 04/28/2022 at 15:58:33.

 PROCESSING WEL OPTIONS
    WEL BOUNDARIES HAVE NAMES IN LAST COLUMN.
    FLOWS WILL BE SAVED TO BUDGET FILE SPECIFIED IN OUTPUT CONTROL
 END OF WEL OPTIONS

 PROCESSING WEL DIMENSIONS
    MAXBOUND =       9
 END OF WEL DIMENSIONS

 DRN   -- DRN PACKAGE, VERSION 8, 2/22/2014 INPUT READ FROM UNIT 1013
 # File generated by Flopy version 3.3.5 on 04/28/2022 at 15:58:33.

 PROCESSING DRN OPTIONS
    DRN BOUNDARIES HAVE NAMES IN LAST COLUMN.
    FLOWS WILL BE SAVED TO BUDGET FILE SPECIFIED IN OUTPUT CONTROL

 OPENED ml.drn.obs
 FILE TYPE:OBS   UNIT 1016   STATUS:OLD                 
 FORMAT:FORMATTED              ACCESS:SEQUENTIAL          
 ACTION:READ                

 END OF DRN OPTIONS

 PROCESSING DRN DIMENSIONS
    MAXBOUND =     133
 END OF DRN DIMENSIONS

 RIV   -- RIV PACKAGE, VERSION 8, 2/22/2014 INPUT READ FROM UNIT 1014
 # File generated by Flopy version 3.3.5 on 04/28/2022 at 15:58:33.

 PROCESSING RIV OPTIONS
    AUXILIARY RIV VARIABLE: FID             
    RIV BOUNDARIES HAVE NAMES IN LAST COLUMN.
    FLOWS WILL BE SAVED TO BUDGET FILE SPECIFIED IN OUTPUT CONTROL
 END OF RIV OPTIONS

 PROCESSING RIV DIMENSIONS
    MAXBOUND =     794
 END OF RIV DIMENSIONS

 GHB   -- GHB PACKAGE, VERSION 8, 2/22/2014 INPUT READ FROM UNIT 1008
 # File generated by Flopy version 3.3.5 on 04/28/2022 at 15:58:32.

 PROCESSING GHB OPTIONS
    GHB BOUNDARIES HAVE NAMES IN LAST COLUMN.
    FLOWS WILL BE SAVED TO BUDGET FILE SPECIFIED IN OUTPUT CONTROL
 END OF GHB OPTIONS

 PROCESSING GHB DIMENSIONS
    MAXBOUND =     153
 END OF GHB DIMENSIONS

 RCH   -- RCH PACKAGE, VERSION 8, 2/22/2014 INPUT READ FROM UNIT 1009
 # File generated by Flopy version 3.3.5 on 04/28/2022 at 15:58:32.

 PROCESSING RCH OPTIONS
    RECHARGE INPUT WILL BE READ AS ARRAY(S).
    FLOWS WILL BE SAVED TO BUDGET FILE SPECIFIED IN OUTPUT CONTROL
 END OF RCH OPTIONS

 IC -- INITIAL CONDITIONS PACKAGE, VERSION 8, 3/28/2015 INPUT READ FROM UNIT 1006
 # File generated by Flopy version 3.3.5 on 04/28/2022 at 15:58:32.
 PROCESSING GRIDDATA

     INITIAL HEAD =   15.00000    
 END PROCESSING GRIDDATA
 PROCESSING GRIDDATA

                ICELLTYPE = 0

 OPENED ../com_ext/k.txt
 FILE TYPE:OPEN/CLOSE   UNIT 1017   STATUS:OLD                 
 FORMAT:FORMATTED              ACCESS:SEQUENTIAL          
 ACTION:READ                

 K33 not provided.  Assuming K33 = K.
 K22 not provided.  Assuming K22 = K.
 END PROCESSING GRIDDATA

The observation utility is active for "ML"
 # File generated by Flopy version 3.3.5 on 04/28/2022 at 15:58:33.

Processing observation options:

Text output number of digits of precision set to: 10
The PRINT_INPUT option has been specified.


 OBSERVATIONS READ FROM FILE "ml.obs"
 ----------------------------------------------------------------------------------------------------------------------------------------------------------------------------------------------------------------------------
 NAME                                     TYPE                                       TIME         LOCATION DATA                              OUTPUT FILENAME                                                                 
 ----------------------------------------------------------------------------------------------------------------------------------------------------------------------------------------------------------------------------
 PRG                                      CONTINUOUS  HEAD                           ALL TIMES    "1 16523"                                  sim/hds.csv                                                                     
 P8                                       CONTINUOUS  HEAD                           ALL TIMES    "1 10323"                                  sim/hds.csv                                                                     
 P24                                      CONTINUOUS  HEAD                           ALL TIMES    "1 9594"                                   sim/hds.csv                                                                     
 P25                                      CONTINUOUS  HEAD                           ALL TIMES    "1 13966"                                  sim/hds.csv                                                                     
 P32                                      CONTINUOUS  HEAD                           ALL TIMES    "1 15787"                                  sim/hds.csv                                                                     
 P33                                      CONTINUOUS  HEAD                           ALL TIMES    "1 15825"                                  sim/hds.csv                                                                     
 PF                                       CONTINUOUS  HEAD                           ALL TIMES    "1 21048"                                  sim/hds.csv                                                                     
 PH                                       CONTINUOUS  HEAD                           ALL TIMES    "1 20781"                                  sim/hds.csv                                                                     
 PZHM1                                    CONTINUOUS  HEAD                           ALL TIMES    "1 14521"                                  sim/hds.csv                                                                     
 P26                                      CONTINUOUS  HEAD                           ALL TIMES    "1 13141"                                  sim/hds.csv                                                                     
 P27                                      CONTINUOUS  HEAD                           ALL TIMES    "1 8465"                                   sim/hds.csv                                                                     
 P28                                      CONTINUOUS  HEAD                           ALL TIMES    "1 8924"                                   sim/hds.csv                                                                     
 P29                                      CONTINUOUS  HEAD                           ALL TIMES    "1 4524"                                   sim/hds.csv                                                                     
 P30                                      CONTINUOUS  HEAD                           ALL TIMES    "1 5255"                                   sim/hds.csv                                                                     
 R20                                      CONTINUOUS  HEAD                           ALL TIMES    "1 10676"                                  sim/hds.csv                                                                     
 R21                                      CONTINUOUS  HEAD                           ALL TIMES    "1 10403"                                  sim/hds.csv                                                                     
 P34                                      CONTINUOUS  HEAD                           ALL TIMES    "1 15131"                                  sim/hds.csv                                                                     
 P37                                      CONTINUOUS  HEAD                           ALL TIMES    "1 15755"                                  sim/hds.csv                                                                     
 P38                                      CONTINUOUS  HEAD                           ALL TIMES    "1 15045"                                  sim/hds.csv                                                                     
 P39                                      CONTINUOUS  HEAD                           ALL TIMES    "1 9637"                                   sim/hds.csv                                                                     
 P40                                      CONTINUOUS  HEAD                           ALL TIMES    "1 9312"                                   sim/hds.csv                                                                     
 AP1                                      CONTINUOUS  HEAD                           ALL TIMES    "1 9702"                                   sim/hds.csv                                                                     
 RCK1                                     CONTINUOUS  HEAD                           ALL TIMES    "1 15900"                                  sim/hds.csv                                                                     
 RCK2                                     CONTINUOUS  HEAD                           ALL TIMES    "1 15199"                                  sim/hds.csv                                                                     
 P23                                      CONTINUOUS  HEAD                           ALL TIMES    "1 6409"                                   sim/hds.csv                                                                     
 ----------------------------------------------------------------------------------------------------------------------------------------------------------------------------------------------------------------------------


    BINARY GRID INFORMATION WILL BE WRITTEN TO:
      UNIT NUMBER: 1019
      FILE NAME: /srv/common/ptrack/case_study/pst/ml_01/./ml.disv.grb

 OPENED /srv/common/ptrack/case_study/pst/ml_01/./ml.disv.grb
 FILE TYPE:DATA(BINARY)   UNIT 1019   STATUS:REPLACE             
 FORMAT:UNFORMATTED            ACCESS:STREAM              
 ACTION:READWRITE           

      THE LAST TIME STEP WILL BE PRINTED
      THE LAST TIME STEP WILL BE PRINTED
 # File generated by Flopy version 3.3.5 on 04/28/2022 at 15:58:33.

 PROCESSING OC OPTIONS

    BUDGET INFORMATION WILL BE WRITTEN TO:
      UNIT NUMBER: 1020
      FILE NAME: ml.cbc

 OPENED ml.cbc
 FILE TYPE:DATA(BINARY)   UNIT 1020   STATUS:REPLACE             
 FORMAT:UNFORMATTED            ACCESS:STREAM              
 ACTION:READWRITE           

    HEAD INFORMATION WILL BE WRITTEN TO:
      UNIT NUMBER: 1021
      FILE NAME: ml.hds

 OPENED ml.hds
 FILE TYPE:DATA(BINARY)   UNIT 1021   STATUS:REPLACE             
 FORMAT:UNFORMATTED            ACCESS:STREAM              
 ACTION:READWRITE           

 END OF OC OPTIONS

The observation utility is active for "DRN_0"
 # File generated by Flopy version 3.3.5 on 04/28/2022 at 15:58:33.

Processing observation options:



start timestep kper="1" kstp="1" mode="normal"


 BEGIN READING OUTPUT CONTROL FOR STRESS PERIOD 1
      THE LAST TIME STEP WILL BE SAVED
      THE LAST TIME STEP WILL BE SAVED

 END READING OUTPUT CONTROL FOR STRESS PERIOD 1

 OPENED ext/wel_spd_1.txt
 FILE TYPE:OPEN/CLOSE   UNIT 1023   STATUS:OLD                 
 FORMAT:FORMATTED              ACCESS:SEQUENTIAL          
 ACTION:READ                


 OPENED ext/drn_spd_1.txt
 FILE TYPE:OPEN/CLOSE   UNIT 1024   STATUS:OLD                 
 FORMAT:FORMATTED              ACCESS:SEQUENTIAL          
 ACTION:READ                


 OPENED ext/riv_spd_1.txt
 FILE TYPE:OPEN/CLOSE   UNIT 1025   STATUS:OLD                 
 FORMAT:FORMATTED              ACCESS:SEQUENTIAL          
 ACTION:READ                


 OPENED ../com_ext/ghb_spd_1.txt
 FILE TYPE:OPEN/CLOSE   UNIT 1026   STATUS:OLD                 
 FORMAT:FORMATTED              ACCESS:SEQUENTIAL          
 ACTION:READ                


 OPENED ../com_ext/rech_spd_1.txt
 FILE TYPE:OPEN/CLOSE   UNIT 1027   STATUS:OLD                 
 FORMAT:FORMATTED              ACCESS:SEQUENTIAL          
 ACTION:READ                


 SLN_1 INNER ITERATION SUMMARY
 --------------------------------------------------------------------------------------------------------------------------------------
      TOTAL      OUTER      INNER                                                            MAXIMUM                                   
  ITERATION  ITERATION  ITERATION  MAXIMUM CHANGE      MAXIMUM CHANGE MODEL-(CELLID)        RESIDUAL    MAXIMUM RESIDUAL MODEL-(CELLID)
 --------------------------------------------------------------------------------------------------------------------------------------
          1          1          1      -11.761767                    1_GWF-(1,12785)      0.32866097                    1_GWF-(1,11169)
          2          1          2       5.5347226                    1_GWF-(1,26601)     -0.22649830                    1_GWF-(1,11169)
          3          1          3       5.7758481                    1_GWF-(1,26565)     -0.13980561                    1_GWF-(1,11178)
          4          1          4       5.9265480                    1_GWF-(1,26512)      0.16205910                    1_GWF-(1,11178)
          5          1          5       5.6096979                    1_GWF-(1,26611)     -0.12279783                    1_GWF-(1,11180)
          6          1          6       5.9352388                    1_GWF-(1,26649)     -0.11546694                    1_GWF-(1,11157)
          7          1          7       4.8452650                    1_GWF-(1,26622) -6.86089057E-02                    1_GWF-(1,11158)
          8          1          8       3.9083296                    1_GWF-(1,26665) -6.85449680E-02                    1_GWF-(1,11180)
          9          1          9      -3.2561603                    1_GWF-(1,26665)  5.21666084E-02                    1_GWF-(1,11051)
         10          1         10      -2.8505905                    1_GWF-(1,26666) -5.53952420E-02                    1_GWF-(1,11158)
         11          1         11       2.5579274                    1_GWF-(1,26544) -5.87435769E-02                    1_GWF-(1,11180)
         12          1         12      -2.8738849                    1_GWF-(1,26622)  3.95860907E-02                    1_GWF-(1,11058)
         13          1         13      -3.4587059                    1_GWF-(1,26649)  4.31603562E-02                    1_GWF-(1,11180)
         14          1         14      -2.6581056                    1_GWF-(1,26622) -4.08603941E-02                    1_GWF-(1,11180)
         15          1         15      -1.8079541                    1_GWF-(1,26623)  2.85178346E-02                    1_GWF-(1,11026)
         16          1         16       1.3493999                    1_GWF-(1,26623)  4.88254297E-02                    1_GWF-(1,11180)
         17          1         17       1.6249709                    1_GWF-(1,26665)  4.01203708E-02                    1_GWF-(1,11051)
         18          1         18       1.9790441                    1_GWF-(1,26588) -3.41273159E-02                    1_GWF-(1,11194)
         19          1         19      -2.1862004                    1_GWF-(1,26588)  3.99390950E-02                    1_GWF-(1,11180)
         20          1         20      -1.7789362                    1_GWF-(1,26543) -2.49927097E-02                    1_GWF-(1,11104)
         21          1         21      -1.3843605                    1_GWF-(1,26544) -2.97776289E-02                    1_GWF-(1,11194)
         22          1         22      -1.6809908                    1_GWF-(1,26486)  3.25724520E-02                    1_GWF-(1,11180)
         23          1         23      -2.0934921                    1_GWF-(1,26487) -2.64274565E-02                    1_GWF-(1,11155)
         24          1         24      -2.2712919                    1_GWF-(1,26486) -2.99841930E-02                    1_GWF-(1,11194)
         25          1         25       1.9732070                    1_GWF-(1,26420) -3.57426362E-02                    1_GWF-(1,11109)
         26          1         26       2.1503695                    1_GWF-(1,26487)  2.81274264E-02                    1_GWF-(1,11151)
         27          1         27       1.8601580                    1_GWF-(1,26420) -2.80092085E-02                    1_GWF-(1,11101)
         28          1         28       1.2544816                    1_GWF-(1,26487) -3.14236937E-02                    1_GWF-(1,11109)
         29          1         29      0.90285819                    1_GWF-(1,26420)  3.29048742E-02                    1_GWF-(1,11109)
         30          1         30     -0.86427245                    1_GWF-(1,26350)  3.39863623E-02                    1_GWF-(1,11110)
         31          1         31      -1.1706485                    1_GWF-(1,26422)  2.74453596E-02                    1_GWF-(1,11105)
         32          1         32      -1.2866821                    1_GWF-(1,26350)  2.40786894E-02                     1_GWF-(1,5617)
         33          1         33      -1.4091734                    1_GWF-(1,26422)  2.85435981E-02                    1_GWF-(1,11110)
         34          1         34      -1.2073824                    1_GWF-(1,26350)  2.72720807E-02                    1_GWF-(1,11105)
         35          1         35     -0.96184516                    1_GWF-(1,26422) -3.46965462E-02                    1_GWF-(1,11105)
         36          1         36     -0.84325260                    1_GWF-(1,25252) -3.88825401E-02                    1_GWF-(1,11114)
         37          1         37     -0.97565336                    1_GWF-(1,25240)  2.69582947E-02                    1_GWF-(1,11114)
         38          1         38      -1.0608715                    1_GWF-(1,25322)  3.16622980E-02                    1_GWF-(1,11103)
         39          1         39      -1.1606997                    1_GWF-(1,25455) -3.56179880E-02                    1_GWF-(1,11096)
         40          1         40      -1.1072575                    1_GWF-(1,20223)  3.98088740E-02                    1_GWF-(1,15107)
         41          1         41      -1.1411586                    1_GWF-(1,21381)  3.82006568E-02                    1_GWF-(1,11093)
         42          1         42      -1.3768852                    1_GWF-(1,21458) -4.15910824E-02                    1_GWF-(1,11093)
         43          1         43      -1.7090967                    1_GWF-(1,21487) -4.69441400E-02                    1_GWF-(1,11094)
         44          1         44      -1.8542766                    1_GWF-(1,21417)  5.23881490E-02                    1_GWF-(1,15107)
         45          1         45      -1.5308905                    1_GWF-(1,21437)  3.51286146E-02                    1_GWF-(1,11091)
         46          1         46      -1.2845364                    1_GWF-(1,20572)  3.13579346E-02                    1_GWF-(1,11093)
         47          1         47      -1.2766324                    1_GWF-(1,20920)  2.89981992E-02                    1_GWF-(1,11094)
         48          1         48      -1.2170191                    1_GWF-(1,26218) -2.56808220E-02                    1_GWF-(1,11094)
         49          1         49      -1.2142093                    1_GWF-(1,26217) -2.41108512E-02                    1_GWF-(1,11091)
         50          1         50      -1.3962227                    1_GWF-(1,26218)  2.06076341E-02                    1_GWF-(1,14801)
         51          2          1      -20.531515                    1_GWF-(1,26519) -8.66583117E-02                    1_GWF-(1,26519)
         52          2          2      -7.9092714                    1_GWF-(1,26569) -3.41362623E-02                    1_GWF-(1,26516)
         53          2          3      -4.0614556                    1_GWF-(1,26637)  2.12397852E-02                    1_GWF-(1,26516)
         54          2          4      -4.0100819                    1_GWF-(1,26665) -1.49595473E-02                    1_GWF-(1,26519)
         55          2          5      -2.6580974                    1_GWF-(1,26648)  1.28434969E-02                    1_GWF-(1,14801)
         56          2          6      -1.9688312                    1_GWF-(1,26586)  1.30411980E-02                    1_GWF-(1,14801)
         57          2          7      -1.7592343                    1_GWF-(1,26543)  1.15755490E-02                    1_GWF-(1,14801)
         58          2          8      -1.6287667                    1_GWF-(1,26486)  1.21183337E-02                    1_GWF-(1,14801)
         59          2          9      -1.3918935                    1_GWF-(1,26487)  1.07027247E-02                    1_GWF-(1,14801)
         60          2         10      -1.3518177                    1_GWF-(1,26218)  1.03606339E-02                    1_GWF-(1,14801)
         61          2         11      -1.3640126                    1_GWF-(1,26422)  9.36131499E-03                    1_GWF-(1,14801)
         62          2         12      -1.1155162                    1_GWF-(1,26217)  8.37857933E-03                    1_GWF-(1,14801)
         63          2         13      -1.0275203                    1_GWF-(1,26218)  8.48999306E-03                    1_GWF-(1,14801)
         64          2         14     -0.67261421                    1_GWF-(1,26649)  7.88129106E-03                    1_GWF-(1,14801)
         65          2         15     -0.61707261                    1_GWF-(1,26622)  7.64252150E-03                    1_GWF-(1,14801)
         66          2         16      0.94356884                    1_GWF-(1,26420)  7.97813406E-03                    1_GWF-(1,14801)
         67          2         17       1.2371817                    1_GWF-(1,26350)  7.47278093E-03                    1_GWF-(1,14801)
         68          2         18      0.95620782                    1_GWF-(1,26217)  7.94041558E-03                    1_GWF-(1,14801)
         69          2         19      0.70282008                    1_GWF-(1,26218)  8.02610695E-03                    1_GWF-(1,14801)
         70          2         20      0.51667341                    1_GWF-(1,26486)  7.73724672E-03                    1_GWF-(1,14801)
         71          2         21      0.83349891                    1_GWF-(1,26588)  8.06877024E-03                    1_GWF-(1,14801)
         72          2         22      0.93395366                    1_GWF-(1,26543)  7.84680956E-03                    1_GWF-(1,14801)
         73          2         23      0.60128676                    1_GWF-(1,25712)  8.19104030E-03                    1_GWF-(1,14801)
         74          2         24     -0.63524674                    1_GWF-(1,26422)  9.20548957E-03                    1_GWF-(1,14801)
         75          2         25     -0.87642341                    1_GWF-(1,26486)  9.00898156E-03                    1_GWF-(1,14801)
         76          2         26     -0.95955301                    1_GWF-(1,26487)  1.00466775E-02                    1_GWF-(1,14801)
         77          2         27     -0.61286728                    1_GWF-(1,26420)  1.03278703E-02                    1_GWF-(1,14801)
         78          2         28      0.34255403                    1_GWF-(1,25453)  1.00474031E-02                    1_GWF-(1,14801)
         79          2         29      0.40151412                    1_GWF-(1,26487)  1.07648292E-02                    1_GWF-(1,14801)
         80          2         30      0.41684878                    1_GWF-(1,26420)  9.69098181E-03                    1_GWF-(1,14799)
         81          2         31      0.36027004                    1_GWF-(1,25266)  1.08396644E-02                    1_GWF-(1,14801)
         82          2         32     -0.33511132                    1_GWF-(1,26157)  9.48627017E-03                    1_GWF-(1,14799)
         83          2         33     -0.30700061                    1_GWF-(1,26150)  1.00592981E-02                    1_GWF-(1,14801)
         84          2         34      0.26460186                    1_GWF-(1,26586)  7.79667597E-03                    1_GWF-(1,14799)
         85          2         35      0.33964177                    1_GWF-(1,26623)  7.94070218E-03                    1_GWF-(1,14801)
         86          2         36      0.27509821                    1_GWF-(1,26649)  6.12177638E-03                    1_GWF-(1,14801)
         87          2         37     -0.32605435                    1_GWF-(1,26350)  6.51621090E-03                    1_GWF-(1,14801)
         88          2         38     -0.31683424                    1_GWF-(1,26422)  6.25009883E-03                    1_GWF-(1,14801)
         89          2         39     -0.35749596                    1_GWF-(1,26649)  6.06205805E-03                    1_GWF-(1,14799)
         90          2         40     -0.39837547                    1_GWF-(1,26422)  6.87163234E-03                    1_GWF-(1,14801)
         91          2         41      0.28731759                    1_GWF-(1,26422)  6.02634836E-03                    1_GWF-(1,14799)
         92          2         42      0.32755331                    1_GWF-(1,26350)  7.82730626E-03                    1_GWF-(1,15107)
         93          2         43     -0.29994915                    1_GWF-(1,26350)  6.23871513E-03                    1_GWF-(1,14799)
         94          2         44      0.34586374                    1_GWF-(1,21281)  7.17006434E-03                    1_GWF-(1,14801)
         95          2         45      0.41162982                    1_GWF-(1,21264)  6.55259423E-03                    1_GWF-(1,26625)
         96          2         46      0.43415933                    1_GWF-(1,20917)  4.49442560E-03                    1_GWF-(1,14799)
         97          2         47      0.36854061                    1_GWF-(1,20232)  3.50160603E-03                    1_GWF-(1,10342)
         98          2         48     -0.31503165                    1_GWF-(1,26665)  7.57771812E-03                    1_GWF-(1,26625)
         99          2         49     -0.33701965                    1_GWF-(1,21377) -6.46396849E-03                    1_GWF-(1,26625)
        100          2         50     -0.42760227                    1_GWF-(1,21349)  6.47635034E-03                    1_GWF-(1,15109)
        101          3          1     -0.95483177                    1_GWF-(1,16214) -4.34725286E-03                    1_GWF-(1,11460)
        102          3          2     -0.55948178                    1_GWF-(1,16200)  3.77171497E-03                    1_GWF-(1,15109)
        103          3          3     -0.36500007                    1_GWF-(1,16233)  5.20122379E-03                    1_GWF-(1,15108)
        104          3          4     -0.30827985                    1_GWF-(1,16536) -5.08963184E-03                    1_GWF-(1,15108)
        105          3          5     -0.27544335                    1_GWF-(1,21263) -3.69595601E-03                    1_GWF-(1,15109)
        106          3          6     -0.28082176                    1_GWF-(1,21260) -2.90345729E-03                    1_GWF-(1,15108)
        107          3          7      0.23454156                    1_GWF-(1,16538)  2.71551327E-03                    1_GWF-(1,15107)
        108          3          8      0.16415241                    1_GWF-(1,16545)  2.50985966E-03                    1_GWF-(1,11460)
        109          3          9     -0.18252421                    1_GWF-(1,16537)  2.16194183E-03                    1_GWF-(1,14799)
        110          3         10     -0.22099579                    1_GWF-(1,16542)  2.80056530E-03                    1_GWF-(1,14801)
        111          3         11     -0.20219841                    1_GWF-(1,16569)  2.88320644E-03                    1_GWF-(1,14799)
        112          3         12      0.17978324                    1_GWF-(1,26350)  2.98968976E-03                    1_GWF-(1,15108)
        113          3         13      0.21280092                    1_GWF-(1,26422) -2.58242688E-03                    1_GWF-(1,15108)
        114          3         14      0.23561541                    1_GWF-(1,26350)  2.11948787E-03                    1_GWF-(1,15108)
        115          3         15      0.19756050                    1_GWF-(1,26422)  1.79126127E-03                    1_GWF-(1,14798)
        116          3         16     -0.13562165                    1_GWF-(1,11576)  1.74227106E-03                    1_GWF-(1,14799)
        117          3         17     -0.10895674                    1_GWF-(1,26649)  2.06602362E-03                    1_GWF-(1,15108)
        118          3         18      0.14534954                    1_GWF-(1,11576)  2.50109313E-03                    1_GWF-(1,15109)
        119          3         19     -0.11676805                    1_GWF-(1,26586)  3.44403430E-03                    1_GWF-(1,14801)
        120          3         20     -0.12673995                    1_GWF-(1,22396)  4.00084204E-03                    1_GWF-(1,14799)
        121          3         21     -0.11794476                    1_GWF-(1,16803)  3.93323974E-03                    1_GWF-(1,14801)
        122          3         22     -0.11775185                    1_GWF-(1,11714)  3.16425605E-03                    1_GWF-(1,15109)
        123          3         23     -0.11016680                    1_GWF-(1,25444)  3.49287076E-03                    1_GWF-(1,15107)
        124          3         24     -0.11153424                    1_GWF-(1,25492) -2.51806514E-03                    1_GWF-(1,15107)
        125          3         25      0.17615126                    1_GWF-(1,26487)  2.09452801E-03                    1_GWF-(1,14801)
        126          3         26      0.20440247                    1_GWF-(1,26420)  1.62204963E-03                    1_GWF-(1,14799)
        127          3         27      0.21320268                    1_GWF-(1,26487)  2.21341343E-03                    1_GWF-(1,15109)
        128          3         28      0.14006603                    1_GWF-(1,26420)  3.42401461E-03                    1_GWF-(1,15107)
        129          3         29     -0.13032811                    1_GWF-(1,26543) -2.39307714E-03                    1_GWF-(1,15107)
        130          3         30     -0.17778542                    1_GWF-(1,26588)  1.92090099E-03                    1_GWF-(1,15107)
        131          3         31     -0.19223011                    1_GWF-(1,26543)  1.98305139E-03                    1_GWF-(1,14801)
        132          3         32     -0.16428354                    1_GWF-(1,26588)  1.98372787E-03                    1_GWF-(1,14801)
        133          3         33     -0.13303589                    1_GWF-(1,26543)  3.43454606E-03                    1_GWF-(1,15107)
        134          3         34     -0.14526478                    1_GWF-(1,26350) -3.65347730E-03                    1_GWF-(1,15107)
        135          3         35     -0.14429952                    1_GWF-(1,24856)  2.95295974E-03                    1_GWF-(1,15107)
        136          3         36      0.15766597                    1_GWF-(1,26622)  1.51232152E-03                    1_GWF-(1,10342)
        137          3         37      0.14897465                    1_GWF-(1,26649)  2.40657732E-03                    1_GWF-(1,14938)
        138          3         38      0.14902197                    1_GWF-(1,26622)  4.15190398E-03                    1_GWF-(1,15107)
        139          3         39      0.12952517                    1_GWF-(1,26649) -2.44352998E-03                    1_GWF-(1,15107)
        140          3         40     -0.13886752                    1_GWF-(1,26665)  2.17372754E-03                    1_GWF-(1,14799)
        141          3         41      0.15176660                    1_GWF-(1,26665)  2.40013004E-03                    1_GWF-(1,14801)
        142          3         42     -0.17886770                    1_GWF-(1,26665) -3.71793993E-03                    1_GWF-(1,15107)
        143          3         43     -0.12439300                    1_GWF-(1,26666)  3.96247349E-03                    1_GWF-(1,15107)
        144          3         44      0.10078238                    1_GWF-(1,26540) -2.53995106E-03                    1_GWF-(1,15107)
        145          3         45      0.11578655                    1_GWF-(1,26587)  3.54802985E-03                    1_GWF-(1,15107)
        146          3         46      0.11615768                    1_GWF-(1,26648)  1.67904598E-03                    1_GWF-(1,14938)
        147          3         47      0.12507270                    1_GWF-(1,26649)  1.71387882E-03                    1_GWF-(1,15109)
        148          3         48 -9.84064516E-02                    1_GWF-(1,26218)  2.24940185E-03                    1_GWF-(1,15107)
        149          3         49 -9.01617933E-02                    1_GWF-(1,26217)  2.68982104E-03                    1_GWF-(1,14938)
        150          3         50     -0.13057923                    1_GWF-(1,26649)  4.73211238E-03                    1_GWF-(1,15107)
        151          4          1  7.92046043E-02                    1_GWF-(1,26218)  3.20607944E-03                    1_GWF-(1,14938)
        152          4          2 -7.72462329E-02                    1_GWF-(1,26218)  3.83451783E-03                    1_GWF-(1,15107)
        153          4          3 -8.58916573E-02                    1_GWF-(1,26217) -2.90668025E-03                    1_GWF-(1,15107)
        154          4          4 -9.45923145E-02                    1_GWF-(1,26218)  2.79667759E-03                    1_GWF-(1,15107)
        155          4          5 -7.61968051E-02                    1_GWF-(1,26217)  1.52617818E-03                    1_GWF-(1,14938)
        156          4          6 -7.59413845E-02                    1_GWF-(1,26218)  1.04240478E-03                    1_GWF-(1,15107)
        157          4          7  7.62684765E-02                    1_GWF-(1,26665)  8.26322134E-04                    1_GWF-(1,10342)
        158          4          8 -6.29664837E-02                    1_GWF-(1,26218)  1.11633692E-03                    1_GWF-(1,14801)
        159          4          9  8.18385217E-02                    1_GWF-(1,26665)  1.32896747E-03                    1_GWF-(1,15107)
        160          4         10 -8.63637543E-02                    1_GWF-(1,26665)  1.10562598E-03                    1_GWF-(1,14801)
        161          4         11  8.49771154E-02                    1_GWF-(1,26665)  7.92380662E-04                    1_GWF-(1,14801)
        162          4         12 -7.15737778E-02                    1_GWF-(1,26649)  1.28278217E-03                    1_GWF-(1,15107)
        163          4         13 -6.92443121E-02                    1_GWF-(1,26622)  1.26859674E-03                    1_GWF-(1,14938)
        164          4         14 -6.59121355E-02                    1_GWF-(1,26649)  1.32289549E-03                    1_GWF-(1,15107)
        165          4         15 -6.56281725E-02                    1_GWF-(1,26622)  6.86435826E-04                    1_GWF-(1,10342)
        166          4         16  6.55770593E-02                    1_GWF-(1,21411)  5.80501150E-04                    1_GWF-(1,14801)
        167          4         17  6.33895495E-02                    1_GWF-(1,24854)  1.31063689E-03                    1_GWF-(1,15107)
        168          4         18  5.82943208E-02                    1_GWF-(1,24701)  1.15611184E-03                    1_GWF-(1,14801)
        169          4         19  5.62457724E-02                    1_GWF-(1,26588)  1.31915476E-03                    1_GWF-(1,15107)
        170          4         20  5.34031052E-02                    1_GWF-(1,26543)  1.01113001E-03                    1_GWF-(1,14801)
        171          4         21 -5.20665566E-02                    1_GWF-(1,26543)  7.47795010E-04                    1_GWF-(1,14801)
        172          4         22 -5.42876830E-02                    1_GWF-(1,26487)  1.46134604E-03                    1_GWF-(1,15107)
        173          4         23 -5.49087014E-02                    1_GWF-(1,26486)  1.33411216E-03                    1_GWF-(1,14938)
        174          4         24 -5.71764698E-02                    1_GWF-(1,26487)  1.46230279E-03                    1_GWF-(1,15107)
        175          4         25 -5.40576044E-02                    1_GWF-(1,26486)  5.75744270E-04                    1_GWF-(1,14801)
        176          4         26  5.47418937E-02                    1_GWF-(1,26420)  8.33326726E-04                    1_GWF-(1,14938)
        177          4         27  4.15934506E-02                    1_GWF-(1,26487)  1.89915674E-03                    1_GWF-(1,15107)
        178          4         28  3.30404156E-02                    1_GWF-(1,26420) -1.76618298E-03                    1_GWF-(1,15107)
        179          4         29  3.98516443E-02                    1_GWF-(1,26543)  2.55679877E-03                    1_GWF-(1,15107)
        180          4         30  4.10989080E-02                    1_GWF-(1,26586) -1.97287351E-03                    1_GWF-(1,15107)
        181          4         31  4.19716780E-02                    1_GWF-(1,26623)  2.24810026E-03                    1_GWF-(1,15107)
        182          4         32  3.55845606E-02                    1_GWF-(1,26586) -1.81993019E-03                    1_GWF-(1,15107)
        183          4         33  2.64526014E-02                    1_GWF-(1,26623)  2.28696874E-03                    1_GWF-(1,15107)
        184          4         34  3.19437122E-02                    1_GWF-(1,26350)  1.19291008E-03                    1_GWF-(1,14938)
        185          4         35  3.75817584E-02                    1_GWF-(1,26422)  1.00674980E-03                    1_GWF-(1,15107)
        186          4         36  3.44837293E-02                    1_GWF-(1,26350)  6.72694232E-04                    1_GWF-(1,14801)
        187          4         37 -4.29568609E-02                    1_GWF-(1,26350)  8.12567087E-04                    1_GWF-(1,14801)
        188          4         38 -4.70921548E-02                    1_GWF-(1,26422)  1.38208343E-03                    1_GWF-(1,15107)
        189          4         39 -5.07113367E-02                    1_GWF-(1,26350) -1.45303865E-03                    1_GWF-(1,15107)
        190          4         40 -5.53851906E-02                    1_GWF-(1,26422)  1.71639737E-03                    1_GWF-(1,15107)
        191          4         41 -4.37953869E-02                    1_GWF-(1,26350) -1.05290702E-03                    1_GWF-(1,15107)
        192          4         42 -3.27070165E-02                    1_GWF-(1,26422)  1.13963570E-03                    1_GWF-(1,15107)
        193          4         43 -2.32303118E-02                    1_GWF-(1,26350)  4.87005812E-04                    1_GWF-(1,15022)
        194          4         44 -2.63223508E-02                    1_GWF-(1,16538)  4.18320462E-04                    1_GWF-(1,15107)
        195          4         45 -2.85896619E-02                    1_GWF-(1,16237) -3.73024756E-04                    1_GWF-(1,15109)
        196          4         46 -2.55166353E-02                    1_GWF-(1,16230) -5.90667561E-04                    1_GWF-(1,15107)
        197          4         47  2.82653470E-02                    1_GWF-(1,16536)  7.76251358E-04                    1_GWF-(1,15107)
        198          4         48  3.56152314E-02                    1_GWF-(1,16192)  7.89172018E-04                    1_GWF-(1,14938)
        199          4         49  4.30881778E-02                    1_GWF-(1,16200)  1.21164928E-03                    1_GWF-(1,15107)
        200          4         50  3.59165041E-02                    1_GWF-(1,26623) -2.46015190E-03                    1_GWF-(1,15107)
        201          5          1 -5.15837554E-02                    1_GWF-(1,16203)  1.31458990E-03                    1_GWF-(1,15107)
        202          5          2 -2.81656432E-02                    1_GWF-(1,16229) -1.75352008E-03                    1_GWF-(1,15107)
        203          5          3 -2.90361986E-02                    1_GWF-(1,16236)  1.75157599E-03                    1_GWF-(1,15107)
        204          5          4 -2.62515897E-02                    1_GWF-(1,16583) -1.31146820E-03                    1_GWF-(1,11460)
        205          5          5 -2.51741937E-02                    1_GWF-(1,20233)  6.87642012E-04                    1_GWF-(1,15107)
        206          5          6 -2.02598663E-02                    1_GWF-(1,16623)  4.99176712E-04                    1_GWF-(1,11460)
        207          5          7 -1.59077990E-02                    1_GWF-(1,26543) -8.76890661E-04                    1_GWF-(1,11460)
        208          5          8 -1.49929164E-02                    1_GWF-(1,19052)  6.87459751E-04                    1_GWF-(1,11460)
        209          5          9  1.84206170E-02                    1_GWF-(1,26422)  4.72476541E-04                    1_GWF-(1,14938)
        210          5         10  1.95460155E-02                    1_GWF-(1,26350)  9.74606905E-04                    1_GWF-(1,15107)
        211          5         11  2.05050165E-02                    1_GWF-(1,26422) -8.52847444E-04                    1_GWF-(1,15107)
        212          5         12  2.04023897E-02                    1_GWF-(1,26350)  1.09095244E-03                    1_GWF-(1,15107)
        213          5         13  2.34744924E-02                    1_GWF-(1,26422) -7.62335541E-04                    1_GWF-(1,15107)
        214          5         14  2.20507002E-02                    1_GWF-(1,26544)  7.14216306E-04                    1_GWF-(1,11460)
        215          5         15  2.13646521E-02                    1_GWF-(1,26486) -4.34686448E-04                    1_GWF-(1,11460)
        216          5         16  1.77507265E-02                    1_GWF-(1,26649) -4.00147392E-04                    1_GWF-(1,15107)
        217          5         17  1.92917490E-02                    1_GWF-(1,26486)  7.85392776E-04                    1_GWF-(1,15107)
        218          5         18  1.43147445E-02                    1_GWF-(1,26544) -4.01473421E-04                    1_GWF-(1,15107)
        219          5         19 -1.76501324E-02                    1_GWF-(1,26588) -3.99177859E-04                    1_GWF-(1,11460)
        220          5         20 -1.49413029E-02                    1_GWF-(1,26622)  6.51134912E-04                    1_GWF-(1,15107)
        221          5         21 -1.75481725E-02                    1_GWF-(1,26623) -7.19771364E-04                    1_GWF-(1,15107)
        222          5         22 -1.59175318E-02                    1_GWF-(1,25291)  1.15774628E-03                    1_GWF-(1,15107)
        223          5         23 -1.32338686E-02                    1_GWF-(1,25279) -1.01433835E-03                    1_GWF-(1,15107)
        224          5         24 -1.18188900E-02                    1_GWF-(1,25381)  1.14136198E-03                    1_GWF-(1,15107)
        225          5         25 -1.27073075E-02                    1_GWF-(1,25679) -1.01589239E-03                    1_GWF-(1,15107)
        226          5         26 -1.37572103E-02                    1_GWF-(1,26487)  7.52670745E-04                    1_GWF-(1,15107)
        227          5         27  1.64476847E-02                    1_GWF-(1,26622)  3.15482142E-04                    1_GWF-(1,14801)
        228          5         28  1.50633457E-02                    1_GWF-(1,26649)  4.04631133E-04                    1_GWF-(1,14938)
        229          5         29 -1.29893636E-02                    1_GWF-(1,26649)  7.19334785E-04                    1_GWF-(1,15107)
        230          5         30 -1.22078586E-02                    1_GWF-(1,24958) -6.62040925E-04                    1_GWF-(1,15107)
        231          5         31 -1.30820960E-02                    1_GWF-(1,24767)  7.38773812E-04                    1_GWF-(1,15107)
        232          5         32 -1.49342284E-02                    1_GWF-(1,24663)  4.39783688E-04                    1_GWF-(1,11460)
        233          5         33 -1.74657926E-02                    1_GWF-(1,24702)  3.42998765E-04                    1_GWF-(1,15107)
        234          5         34 -1.74600715E-02                    1_GWF-(1,24701)  1.59095366E-04                    1_GWF-(1,15107)
        235          5         35  1.47700852E-02                    1_GWF-(1,26543)  4.16819573E-04                    1_GWF-(1,11460)
        236          5         36  1.82601074E-02                    1_GWF-(1,26588)  3.94737166E-04                    1_GWF-(1,15107)
        237          5         37 -1.59196247E-02                    1_GWF-(1,21420) -3.73813147E-04                    1_GWF-(1,15107)
        238          5         38 -1.46794969E-02                    1_GWF-(1,24312)  4.18335373E-04                    1_GWF-(1,11460)
        239          5         39 -1.23378959E-02                    1_GWF-(1,24315) -2.24563259E-04                    1_GWF-(1,11460)
        240          5         40 -1.59856115E-02                    1_GWF-(1,26665) -2.45323651E-04                    1_GWF-(1,15107)
        241          5         41 -1.44767087E-02                    1_GWF-(1,26666)  3.43312014E-04                    1_GWF-(1,11460)
        242          5         42 -1.42032871E-02                    1_GWF-(1,26665)  2.64593390E-04                    1_GWF-(1,14801)
        243          5         43 -1.02337827E-02                    1_GWF-(1,26666)  2.41705425E-04                    1_GWF-(1,14799)
        244          5         44  1.07010321E-02                    1_GWF-(1,26217)  3.72352749E-04                    1_GWF-(1,11460)
        245          5         45  1.21616424E-02                    1_GWF-(1,26218) -2.35817545E-04                    1_GWF-(1,11460)
        246          5         46  9.46954499E-03                    1_GWF-(1,26217)  4.76190371E-04                    1_GWF-(1,15107)
        247          5         47 -1.10248343E-02                    1_GWF-(1,26217) -4.65107355E-04                    1_GWF-(1,15107)
        248          5         48 -1.12027865E-02                    1_GWF-(1,26218)  5.58978576E-04                    1_GWF-(1,15107)
        249          5         49 -9.12098725E-03                    1_GWF-(1,26217) -4.22599223E-04                    1_GWF-(1,15107)
        250          5         50  9.13619686E-03                    1_GWF-(1,26217)  5.30331088E-04                    1_GWF-(1,15107)
        251          6          1 -1.49731924E-02                    1_GWF-(1,11459) -4.09776983E-04                    1_GWF-(1,11459)
        252          6          2  6.88302533E-03                    1_GWF-(1,26149)  6.22458948E-04                    1_GWF-(1,15107)
        253          6          3  1.26723095E-02                    1_GWF-(1,26218) -5.89067181E-04                    1_GWF-(1,15107)
        254          6          4  1.01781713E-02                    1_GWF-(1,26217)  3.24296891E-04                    1_GWF-(1,15107)
        255          6          5 -1.27326268E-02                    1_GWF-(1,11456)  1.24102002E-04                    1_GWF-(1,14938)
        256          6          6  1.70240743E-02                    1_GWF-(1,11456)  1.38661182E-04                    1_GWF-(1,11459)
        257          6          7 -7.78272352E-03                    1_GWF-(1,26217) -1.32036913E-04                    1_GWF-(1,11459)
        258          6          8 -9.96077017E-03                    1_GWF-(1,11456)  1.30369778E-04                    1_GWF-(1,14938)
        259          6          9  1.75016138E-02                    1_GWF-(1,11456)  2.52359159E-04                    1_GWF-(1,15107)
        260          6         10  9.26035503E-03                    1_GWF-(1,26666) -1.70929948E-04                    1_GWF-(1,15107)
        261          6         11 -1.01056237E-02                    1_GWF-(1,11456)  9.67983327E-05                    1_GWF-(1,14799)
        262          6         12  1.72408152E-02                    1_GWF-(1,11456)  1.87083446E-04                    1_GWF-(1,15107)
        263          6         13  8.27019274E-03                    1_GWF-(1,24313) -2.20636135E-04                    1_GWF-(1,15107)
        264          6         14 -1.04658493E-02                    1_GWF-(1,11456)  2.58273630E-04                    1_GWF-(1,15107)
        265          6         15  1.70796907E-02                    1_GWF-(1,11456) -1.76823109E-04                    1_GWF-(1,15107)
        266          6         16  7.34096066E-03                    1_GWF-(1,21411)  1.22004873E-04                    1_GWF-(1,15107)
        267          6         17 -1.11816801E-02                    1_GWF-(1,11456)  1.48753904E-04                    1_GWF-(1,15107)
        268          6         18  1.56726064E-02                    1_GWF-(1,11456) -1.81413960E-04                    1_GWF-(1,15107)
        269          6         19  6.24639943E-03                    1_GWF-(1,24678)  3.46607102E-04                    1_GWF-(1,15107)
        270          6         20 -8.46661924E-03                    1_GWF-(1,11456) -2.91692759E-04                    1_GWF-(1,15107)
        271          6         21  1.30891676E-02                    1_GWF-(1,11456)  2.76738286E-04                    1_GWF-(1,15107)
        272          6         22 -6.41253057E-03                    1_GWF-(1,11456) -1.74390304E-04                    1_GWF-(1,15107)
        273          6         23 -5.43423714E-03                    1_GWF-(1,26649)  1.02292350E-04                    1_GWF-(1,15107)
        274          6         24  8.13927836E-03                    1_GWF-(1,11456)  2.00922523E-04                    1_GWF-(1,15107)
        275          6         25  5.27121401E-03                    1_GWF-(1,26487) -3.10415441E-04                    1_GWF-(1,15107)
        276          6         26 -8.06711095E-03                    1_GWF-(1,11456)  3.54742768E-04                    1_GWF-(1,15107)
        277          6         27  9.73297343E-03                    1_GWF-(1,11456) -2.70148299E-04                    1_GWF-(1,15107)
        278          6         28 -4.37050790E-03                    1_GWF-(1,11456)  3.44113611E-04                    1_GWF-(1,15107)
        279          6         29  4.06689500E-03                    1_GWF-(1,26586) -2.31329475E-04                    1_GWF-(1,15107)
        280          6         30  7.76574177E-03                    1_GWF-(1,11456)  1.97650595E-04                    1_GWF-(1,15107)
        281          6         31 -5.78918049E-03                    1_GWF-(1,11456)  1.10011725E-04                    1_GWF-(1,11455)
        282          6         32  3.82118079E-03                    1_GWF-(1,26486)  8.81926450E-05                    1_GWF-(1,14801)
        283          6         33  5.25025515E-03                    1_GWF-(1,11456)  1.12940989E-04                    1_GWF-(1,15107)
        284          6         34 -4.49263359E-03                    1_GWF-(1,26649) -1.20317268E-04                    1_GWF-(1,15107)
        285          6         35 -5.56675432E-03                    1_GWF-(1,26622)  8.38747976E-05                    1_GWF-(1,15107)
        286          6         36 -6.26322487E-03                    1_GWF-(1,26623)  9.71236297E-05                    1_GWF-(1,14801)
        287          6         37 -4.93705210E-03                    1_GWF-(1,26586)  1.36419706E-04                    1_GWF-(1,11455)
        288          6         38 -5.19923885E-03                    1_GWF-(1,26422)  2.19540319E-04                    1_GWF-(1,15107)
        289          6         39 -4.55045227E-03                    1_GWF-(1,26350) -1.45392490E-04                    1_GWF-(1,15107)
        290          6         40 -4.63209902E-03                    1_GWF-(1,26422)  1.65015354E-04                    1_GWF-(1,11455)
        291          6         41 -4.25059245E-03                    1_GWF-(1,26350) -9.79161997E-05                    1_GWF-(1,11455)
        292          6         42 -3.33858206E-03                    1_GWF-(1,26422)  6.80388302E-05                    1_GWF-(1,14799)
        293          6         43 -2.63122972E-03                    1_GWF-(1,11456)  1.41073934E-04                    1_GWF-(1,11455)
        294          6         44 -2.63634213E-03                    1_GWF-(1,16540) -1.56666327E-04                    1_GWF-(1,11455)
        295          6         45 -2.95534882E-03                    1_GWF-(1,16579)  1.14959437E-04                    1_GWF-(1,15107)
        296          6         46 -2.92503732E-03                    1_GWF-(1,11456) -1.69122265E-04                    1_GWF-(1,15107)
        297          6         47  3.79532353E-03                    1_GWF-(1,16538)  2.06728376E-04                    1_GWF-(1,15107)
        298          6         48  4.12982792E-03                    1_GWF-(1,16194) -1.90487102E-04                    1_GWF-(1,15107)
        299          6         49  3.90972569E-03                    1_GWF-(1,16113)  2.14274970E-04                    1_GWF-(1,15107)
        300          6         50  3.08676152E-03                    1_GWF-(1,16196) -3.13587316E-04                    1_GWF-(1,11455)
        301          7          1 -1.11013227E-02                    1_GWF-(1,11456)  7.21136197E-05                    1_GWF-(1,15107)
        302          7          2 -3.84833052E-03                    1_GWF-(1,16231) -2.11457263E-04                    1_GWF-(1,15107)
        303          7          3  3.88980605E-03                    1_GWF-(1,11455)  2.39074963E-04                    1_GWF-(1,15107)
        304          7          4 -3.42584808E-03                    1_GWF-(1,16580) -1.25591175E-04                    1_GWF-(1,15107)
        305          7          5 -4.70164765E-03                    1_GWF-(1,11455)  8.29731051E-05                    1_GWF-(1,15107)
        306          7          6  7.29298609E-03                    1_GWF-(1,11455) -5.58826597E-05                    1_GWF-(1,15107)
        307          7          7 -4.76522714E-03                    1_GWF-(1,11455)  3.56289574E-05                    1_GWF-(1,14799)
        308          7          8 -2.14136786E-03                    1_GWF-(1,19052)  5.41384591E-05                    1_GWF-(1,15107)
        309          7          9  4.21758711E-03                    1_GWF-(1,11455) -6.34198151E-05                    1_GWF-(1,15107)
        310          7         10 -4.73081285E-03                    1_GWF-(1,11455)  1.13669189E-04                    1_GWF-(1,15107)
        311          7         11 -3.68698037E-03                    1_GWF-(1,11380)  8.59906851E-05                    1_GWF-(1,14938)
        312          7         12  2.56421751E-03                    1_GWF-(1,26350)  1.39691822E-04                    1_GWF-(1,15107)
        313          7         13  3.11823613E-03                    1_GWF-(1,26422) -8.63614975E-05                    1_GWF-(1,15107)
        314          7         14  2.89454173E-03                    1_GWF-(1,26589)  5.15354578E-05                    1_GWF-(1,15107)
        315          7         15  3.44277549E-03                    1_GWF-(1,26623)  4.62780385E-05                    1_GWF-(1,15107)
        316          7         16  2.82092472E-03                    1_GWF-(1,26622) -7.62438715E-05                    1_GWF-(1,15107)
        317          7         17  2.15747432E-03                    1_GWF-(1,26649)  5.27997397E-05                    1_GWF-(1,15107)
        318          7         18  2.22186430E-03                    1_GWF-(1,26486)  3.60092852E-05                    1_GWF-(1,14801)
        319          7         19 -2.01060765E-03                    1_GWF-(1,26486) -4.17473023E-05                    1_GWF-(1,15107)
        320          7         20 -2.05535287E-03                    1_GWF-(1,11380)  7.76011587E-05                    1_GWF-(1,15107)
        321          7         21 -1.86557063E-03                    1_GWF-(1,25268) -9.18442786E-05                    1_GWF-(1,15107)
        322          7         22  2.19948292E-03                    1_GWF-(1,11382)  1.52415139E-04                    1_GWF-(1,15107)
        323          7         23 -1.72868758E-03                    1_GWF-(1,26486) -1.02416772E-04                    1_GWF-(1,15107)
        324          7         24 -1.64506812E-03                    1_GWF-(1,26487)  9.17927794E-05                    1_GWF-(1,15107)
        325          7         25 -2.44124396E-03                    1_GWF-(1,26420)  2.95659647E-05                    1_GWF-(1,14801)
        326          7         26 -2.80412607E-03                    1_GWF-(1,26487) -4.16524502E-05                    1_GWF-(1,15107)
        327          7         27 -2.22832075E-03                    1_GWF-(1,26420)  1.05631833E-04                    1_GWF-(1,15107)
        328          7         28  1.78154397E-03                    1_GWF-(1,11457) -7.83984259E-05                    1_GWF-(1,15107)
        329          7         29 -1.56867339E-03                    1_GWF-(1,24429)  7.36235481E-05                    1_GWF-(1,15107)
        330          7         30 -1.56802123E-03                    1_GWF-(1,24961) -3.17249904E-05                    1_GWF-(1,15107)
        331          7         31 -1.85543827E-03                    1_GWF-(1,26649)  3.41285790E-05                    1_GWF-(1,14801)
        332          7         32 -1.62448643E-03                    1_GWF-(1,24673)  9.05173536E-05                    1_GWF-(1,15107)
        333          7         33 -1.98646008E-03                    1_GWF-(1,24680) -8.04071570E-05                    1_GWF-(1,15107)
        334          7         34 -2.13674030E-03                    1_GWF-(1,24699)  9.04870184E-05                    1_GWF-(1,15107)
        335          7         35 -1.83752581E-03                    1_GWF-(1,24689) -4.71017899E-05                    1_GWF-(1,15107)
        336          7         36 -1.81249506E-03                    1_GWF-(1,21424)  4.97968652E-05                    1_GWF-(1,15107)
        337          7         37 -1.77178417E-03                    1_GWF-(1,21420) -3.49941650E-05                    1_GWF-(1,15107)
        338          7         38 -1.74404231E-03                    1_GWF-(1,24312)  2.19467892E-05                    1_GWF-(1,15107)
        339          7         39 -1.45900252E-03                    1_GWF-(1,24312)  3.50854893E-05                    1_GWF-(1,11459)
        340          7         40 -1.75436435E-03                    1_GWF-(1,26665) -3.71236169E-05                    1_GWF-(1,15107)
        341          7         41 -1.72600892E-03                    1_GWF-(1,26666)  3.14504831E-05                    1_GWF-(1,15107)
        342          7         42 -1.73803617E-03                    1_GWF-(1,26665)  3.76383373E-05                    1_GWF-(1,11459)
        343          7         43 -1.28154599E-03                    1_GWF-(1,26666) -2.67170423E-05                    1_GWF-(1,11459)
        344          7         44  1.22500643E-03                    1_GWF-(1,26217)  1.90627646E-05                    1_GWF-(1,14798)
        345          7         45  1.52326098E-03                    1_GWF-(1,26218)  3.76665036E-05                    1_GWF-(1,11459)
        346          7         46  1.27440293E-03                    1_GWF-(1,26217)  6.21717061E-05                    1_GWF-(1,15107)
        347          7         47  1.30724955E-03                    1_GWF-(1,26218) -6.26197641E-05                    1_GWF-(1,15107)
        348          7         48 -1.36383994E-03                    1_GWF-(1,26218)  7.46486884E-05                    1_GWF-(1,15107)
        349          7         49 -1.19104514E-03                    1_GWF-(1,26217) -5.30643465E-05                    1_GWF-(1,15107)
        350          7         50  1.18787325E-03                    1_GWF-(1,26217)  6.00327534E-05                    1_GWF-(1,15107)
        351          8          1 -6.12559762E-03                    1_GWF-(1,11455)  1.70235230E-05                    1_GWF-(1,14801)
        352          8          2 -3.37404391E-03                    1_GWF-(1,11380)  6.84481362E-05                    1_GWF-(1,15107)
        353          8          3  3.32402678E-03                    1_GWF-(1,11380) -6.05511458E-05                    1_GWF-(1,15107)
        354          8          4  1.76410002E-03                    1_GWF-(1,11468)  4.73914081E-05                    1_GWF-(1,15107)
        355          8          5 -4.82361809E-03                    1_GWF-(1,11380)  2.10832847E-05                    1_GWF-(1,14938)
        356          8          6  4.15328206E-03                    1_GWF-(1,11380)  1.28189687E-05                    1_GWF-(1,15107)
        357          8          7  1.71495153E-03                    1_GWF-(1,11454)  1.27813142E-05                    1_GWF-(1,14799)
        358          8          8 -1.54414603E-03                    1_GWF-(1,11454)  1.53292555E-05                    1_GWF-(1,14938)
        359          8          9  2.34902811E-03                    1_GWF-(1,11380)  2.59973868E-05                    1_GWF-(1,15107)
        360          8         10 -1.19024527E-03                    1_GWF-(1,11380) -2.21650941E-05                    1_GWF-(1,15107)
        361          8         11  1.09374916E-03                    1_GWF-(1,26665)  1.10762906E-05                    1_GWF-(1,15107)
        362          8         12  1.61784866E-03                    1_GWF-(1,11380)  9.52902963E-06                    1_GWF-(1,15107)
        363          8         13  1.12750020E-03                    1_GWF-(1,24313) -1.92423731E-05                    1_GWF-(1,15107)
        364          8         14 -1.16195544E-03                    1_GWF-(1,11466)  3.13684131E-05                    1_GWF-(1,15107)
        365          8         15 -1.02514808E-03                    1_GWF-(1,11381) -1.77959457E-05                    1_GWF-(1,15107)
        366          8         16  9.30467955E-04                    1_GWF-(1,11381)  8.85133596E-06                    1_GWF-(1,14801)
        367          8         17  8.68927454E-04                    1_GWF-(1,24689)  2.50740209E-05                    1_GWF-(1,15107)
        368          8         18 -1.53212504E-03                    1_GWF-(1,11381)  2.10653176E-05                    1_GWF-(1,14938)
        369          8         19 -1.20049323E-03                    1_GWF-(1,11458)  4.41895028E-05                    1_GWF-(1,15107)
        370          8         20  1.07230313E-03                    1_GWF-(1,11458) -3.77266534E-05                    1_GWF-(1,15107)
        371          8         21 -1.00665857E-03                    1_GWF-(1,11381)  3.56920251E-05                    1_GWF-(1,15107)
        372          8         22 -7.35099144E-04                    1_GWF-(1,11384) -2.90078586E-05                    1_GWF-(1,15107)
        373          8         23  8.21289113E-04                    1_GWF-(1,11458)  3.68523662E-05                    1_GWF-(1,15107)
        374          8         24 -6.70223810E-04                    1_GWF-(1,26543)  1.11755679E-05                    1_GWF-(1,14801)
        375          8         25 -7.96418066E-04                    1_GWF-(1,26588) -1.67232277E-05                    1_GWF-(1,15107)
        376          8         26  7.05872665E-04                    1_GWF-(1,11458)  3.92911702E-05                    1_GWF-(1,15107)
        377          8         27 -6.00582294E-04                    1_GWF-(1,11464) -2.93945897E-05                    1_GWF-(1,15107)
        378          8         28  5.90938784E-04                    1_GWF-(1,11381)  3.09792786E-05                    1_GWF-(1,15107)
        379          8         29  6.43489015E-04                    1_GWF-(1,26649) -1.89945118E-05                    1_GWF-(1,15107)
        380          8         30  6.65846076E-04                    1_GWF-(1,26622)  1.43378782E-05                    1_GWF-(1,15107)
        381          8         31  7.26427206E-04                    1_GWF-(1,26649)  1.07868577E-05                    1_GWF-(1,15107)
        382          8         32  5.98936953E-04                    1_GWF-(1,26487) -2.33092079E-05                    1_GWF-(1,15107)
        383          8         33  4.68740180E-04                    1_GWF-(1,26486)  2.13509784E-05                    1_GWF-(1,15107)
        384          8         34 -5.07201167E-04                    1_GWF-(1,26486)  1.14854956E-05                    1_GWF-(1,14798)
        385          8         35 -5.57469391E-04                    1_GWF-(1,11381)  7.48552905E-06                    1_GWF-(1,14799)
        386          8         36 -5.65251191E-04                    1_GWF-(1,26486)  1.05974451E-05                    1_GWF-(1,14801)
        387          8         37 -5.61498078E-04                    1_GWF-(1,26544)  1.26393088E-05                    1_GWF-(1,14938)
        388          8         38 -6.38177821E-04                    1_GWF-(1,26422)  2.30671694E-05                    1_GWF-(1,15107)
        389          8         39 -6.65328611E-04                    1_GWF-(1,11466) -2.05765453E-05                    1_GWF-(1,15107)
        390          8         40  6.28509329E-04                    1_GWF-(1,11466)  2.33270726E-05                    1_GWF-(1,15107)
        391          8         41 -5.01675125E-04                    1_GWF-(1,26350)  1.14160973E-05                    1_GWF-(1,14938)
        392          8         42 -6.11557196E-04                    1_GWF-(1,11466)  8.19432388E-06                    1_GWF-(1,14799)
        393          8         43  5.39174681E-04                    1_GWF-(1,11466)  6.15800606E-06                    1_GWF-(1,14801)
        394          8         44  3.68359035E-04                    1_GWF-(1,11382)  6.81326748E-06                    1_GWF-(1,14801)
        395          8         45  3.23473141E-04                    1_GWF-(1,26486)  1.15245721E-05                    1_GWF-(1,15107)
        396          8         46 -4.09969363E-04                    1_GWF-(1,11381) -1.87664877E-05                    1_GWF-(1,15107)
        397          8         47  4.65437867E-04                    1_GWF-(1,11381)  2.60814639E-05                    1_GWF-(1,15107)
        398          8         48  4.93145347E-04                    1_GWF-(1,16237) -2.57271783E-05                    1_GWF-(1,15107)
        399          8         49  4.48398216E-04                    1_GWF-(1,16230)  2.77194427E-05                    1_GWF-(1,15107)
        400          8         50 -4.10920554E-04                    1_GWF-(1,11466) -2.48834724E-05                    1_GWF-(1,15107)
        401          9          1  4.28603074E-04                    1_GWF-(1,11466)  2.59745996E-05                    1_GWF-(1,15107)
        402          9          2 -4.55541518E-04                    1_GWF-(1,16230) -1.91464321E-05                    1_GWF-(1,15107)
        403          9          3 -4.57139098E-04                    1_GWF-(1,16237)  2.09818669E-05                    1_GWF-(1,15107)
        404          9          4 -3.75185114E-04                    1_GWF-(1,16538) -1.29881871E-05                    1_GWF-(1,15107)
        405          9          5 -3.44766874E-04                    1_GWF-(1,20233) -6.57396746E-06                    1_GWF-(1,14938)
        406          9          6 -3.21992363E-04                    1_GWF-(1,26588)  4.75013821E-06                    1_GWF-(1,14802)
        407          9          7 -3.49558979E-04                    1_GWF-(1,26543)  7.27163770E-06                    1_GWF-(1,14801)
        408          9          8 -3.62350842E-04                    1_GWF-(1,26623)  7.76050564E-06                    1_GWF-(1,15107)
        409          9          9 -3.91027732E-04                    1_GWF-(1,26622)  6.43645782E-06                    1_GWF-(1,14798)
        410          9         10  3.52525644E-04                    1_GWF-(1,11466)  5.35803496E-06                    1_GWF-(1,14938)
        411          9         11 -4.17503926E-04                    1_GWF-(1,11466)  9.10842317E-06                    1_GWF-(1,15107)
        412          9         12  2.92453463E-04                    1_GWF-(1,26486) -9.40038475E-06                    1_GWF-(1,15107)
        413          9         13  2.87372514E-04                    1_GWF-(1,26544)  1.63958434E-05                    1_GWF-(1,15107)
        414          9         14  3.02894216E-04                    1_GWF-(1,26422) -1.26491236E-05                    1_GWF-(1,15107)
        415          9         15  2.72861071E-04                    1_GWF-(1,26350)  1.34910309E-05                    1_GWF-(1,15107)
        416          9         16 -3.12186210E-04                    1_GWF-(1,26350) -7.63190365E-06                    1_GWF-(1,15107)
        417          9         17 -2.88576571E-04                    1_GWF-(1,26422)  6.16168996E-06                    1_GWF-(1,14801)
        418          9         18  2.47485285E-04                    1_GWF-(1,26422)  6.55844483E-06                    1_GWF-(1,14801)
        419          9         19 -2.02333571E-04                    1_GWF-(1,26648) -8.70540639E-06                    1_GWF-(1,15107)
        420          9         20 -3.43102919E-04                    1_GWF-(1,26649)  1.23928469E-05                    1_GWF-(1,15107)
        421          9         21 -3.38956392E-04                    1_GWF-(1,26622)  7.25283224E-06                    1_GWF-(1,14938)
        422          9         22 -3.32529946E-04                    1_GWF-(1,26649)  4.68104521E-06                    1_GWF-(1,14799)
        423          9         23 -2.78800155E-04                    1_GWF-(1,26544)  9.14118909E-06                    1_GWF-(1,15107)
        424          9         24 -2.73043971E-04                    1_GWF-(1,26486) -1.01206853E-05                    1_GWF-(1,15107)
        425          9         25 -1.93316910E-04                    1_GWF-(1,24744)  1.34388878E-05                    1_GWF-(1,15107)
        426          9         26  2.22318540E-04                     1_GWF-(1,8339) -1.13489456E-05                    1_GWF-(1,15107)
        427          9         27  2.32219769E-04                    1_GWF-(1,26588)  8.59917935E-06                    1_GWF-(1,15107)
        428          9         28 -2.00499234E-04                    1_GWF-(1,26588)  5.73776254E-06                    1_GWF-(1,14801)
        429          9         29  2.20131709E-04                    1_GWF-(1,26420) -7.28326877E-06                    1_GWF-(1,15107)
        430          9         30 -2.03312434E-04                    1_GWF-(1,24961)  9.47902799E-06                    1_GWF-(1,15107)
        431          9         31 -2.02249179E-04                    1_GWF-(1,24983) -7.71916224E-06                    1_GWF-(1,15107)
        432          9         32 -2.50952552E-04                    1_GWF-(1,11381)  1.17425835E-05                    1_GWF-(1,15107)
        433          9         33 -2.37536563E-04                    1_GWF-(1,24680) -4.89981574E-06                    1_GWF-(1,15107)
        434          9         34 -2.56352974E-04                    1_GWF-(1,24698)  3.57931857E-06                    1_GWF-(1,14802)
        435          9         35 -2.67888929E-04                    1_GWF-(1,26665)  9.24840504E-06                    1_GWF-(1,15107)
        436          9         36  2.36431515E-04                    1_GWF-(1,26665) -9.09410511E-06                    1_GWF-(1,15107)
        437          9         37 -2.13042170E-04                    1_GWF-(1,21420)  8.44414664E-06                    1_GWF-(1,15107)
        438          9         38 -2.18398886E-04                    1_GWF-(1,24311)  7.03812072E-06                    1_GWF-(1,14938)
        439          9         39 -1.84730030E-04                    1_GWF-(1,11380)  7.31432249E-06                    1_GWF-(1,15107)
        440          9         40  1.89197135E-04                    1_GWF-(1,11454) -5.98264693E-06                    1_GWF-(1,15107)
        441          9         41 -1.96899188E-04                    1_GWF-(1,20578)  3.63241743E-06                    1_GWF-(1,14801)
        442          9         42 -2.66099300E-04                    1_GWF-(1,11380)  4.41680957E-06                    1_GWF-(1,14798)
        443          9         43  1.74492691E-04                    1_GWF-(1,11454)  2.15105351E-06                    1_GWF-(1,14799)
        444          9         44 -2.18502948E-04                    1_GWF-(1,11468)  5.86531494E-06                    1_GWF-(1,15107)
        445          9         45 -3.17137182E-04                    1_GWF-(1,11380) -5.11076309E-06                    1_GWF-(1,15107)
        446          9         46  3.67797032E-04                    1_GWF-(1,11380)  8.01845627E-06                    1_GWF-(1,15107)
        447          9         47  1.82121280E-04                    1_GWF-(1,26218)  8.36935538E-06                    1_GWF-(1,14938)
        448          9         48 -2.15911000E-04                    1_GWF-(1,11380)  9.40506648E-06                    1_GWF-(1,15107)
        449          9         49  2.40753274E-04                    1_GWF-(1,11380)  2.98311631E-06                    1_GWF-(1,14798)
        450          9         50  1.54120364E-04                    1_GWF-(1,11475)  3.57100112E-06                    1_GWF-(1,11455)
        451         10          1 -1.68672188E-04                    1_GWF-(1,26588)  2.00926206E-06                    1_GWF-(1,14801)
        452         10          2 -1.59927776E-04                    1_GWF-(1,26622)  3.48425149E-06                    1_GWF-(1,14798)
        453         10          3 -1.54190098E-04                    1_GWF-(1,26588)  2.93807237E-06                    1_GWF-(1,14801)
        454         10          4  1.61070070E-04                    1_GWF-(1,11381)  2.98897059E-06                    1_GWF-(1,14801)
        455         10          5 -1.43390048E-04                    1_GWF-(1,11381)  2.98708434E-06                    1_GWF-(1,14799)
        456         10          6  1.15193033E-04                    1_GWF-(1,21687)  2.26744925E-06                    1_GWF-(1,15939)
        457         10          7 -1.24820121E-04                    1_GWF-(1,26218) -2.04792216E-06                    1_GWF-(1,15939)
        458         10          8  1.17535402E-04                    1_GWF-(1,11483)  3.39021334E-06                    1_GWF-(1,14798)
        459         10          9  1.31138716E-04                    1_GWF-(1,20560)  2.91508555E-06                    1_GWF-(1,14799)
        460         10         10  1.33662892E-04                    1_GWF-(1,20578)  2.00018068E-06                    1_GWF-(1,14823)
        461         10         11  1.13377908E-04                    1_GWF-(1,20583) -1.50944055E-06                    1_GWF-(1,14938)
        462         10         12  1.17203726E-04                    1_GWF-(1,24586)  1.39222708E-06                    1_GWF-(1,14798)
[...]
        569         12         19 -1.28995335E-05                    1_GWF-(1,26350) -3.62430882E-07                    1_GWF-(1,11455)
        570         12         20 -1.34351281E-05                    1_GWF-(1,26422)  3.35978888E-07                    1_GWF-(1,14801)
        571         12         21  1.05970386E-05                    1_GWF-(1,24960)  3.69830070E-07                    1_GWF-(1,11455)
        572         12         22  9.74914969E-06                    1_GWF-(1,24961) -3.67837107E-07                    1_GWF-(1,11455)
        573         12         23  8.78546112E-06                    1_GWF-(1,25114)  2.89286889E-07                    1_GWF-(1,14801)
        574         12         24 -1.02945224E-05                    1_GWF-(1,26665)  3.56588933E-07                    1_GWF-(1,11455)
        575         12         25 -1.13327899E-05                     1_GWF-(1,8339) -3.86657013E-07                    1_GWF-(1,11455)
        576         12         26  1.27884249E-05                    1_GWF-(1,26422)  2.71796515E-07                    1_GWF-(1,14801)
        577         12         27  1.29925019E-05                    1_GWF-(1,26350)  3.94718161E-07                    1_GWF-(1,11455)
        578         12         28  1.09418998E-05                    1_GWF-(1,26422) -4.48215757E-07                    1_GWF-(1,11455)
        579         12         29  9.23937132E-06                    1_GWF-(1,26649)  2.03870951E-07                    1_GWF-(1,14801)
        580         12         30  1.27775550E-05                    1_GWF-(1,26622)  3.50657625E-07                    1_GWF-(1,11455)
        581         12         31  1.22170178E-05                    1_GWF-(1,26486) -2.93212186E-07                    1_GWF-(1,11455)
        582         12         32  9.10729597E-06                    1_GWF-(1,26622) -1.34738993E-07                    1_GWF-(1,11455)
        583         12         33  5.83133319E-06                     1_GWF-(1,8009)  4.08961709E-07                    1_GWF-(1,11455)
        584         12         34  6.42467195E-06                    1_GWF-(1,20229) -3.46262764E-07                    1_GWF-(1,11455)
        585         12         35  6.00770537E-06                    1_GWF-(1,20221)  1.36896946E-07                    1_GWF-(1,14796)
        586         12         36 -5.10741830E-06                    1_GWF-(1,26588)  3.02378991E-07                    1_GWF-(1,11455)
        587         12         37 -5.64643575E-06                    1_GWF-(1,21418) -4.11777775E-07                    1_GWF-(1,11455)
        588         12         38 -6.83716205E-06                    1_GWF-(1,11381) -2.72683725E-07                    1_GWF-(1,15939)
        589         12         39 -7.56782545E-06                    1_GWF-(1,26543)  2.01229868E-07                    1_GWF-(1,15939)
        590         12         40 -7.44161514E-06                    1_GWF-(1,26588) -3.34395974E-07                    1_GWF-(1,11455)
        591         12         41  9.58665746E-06                    1_GWF-(1,26588)  1.26196645E-07                    1_GWF-(1,14798)
        592         12         42  6.88953851E-06                    1_GWF-(1,26622)  2.51762285E-07                    1_GWF-(1,11455)
        593         12         43  6.48212552E-06                    1_GWF-(1,26623) -3.02614778E-07                    1_GWF-(1,11455)
        594         12         44  5.64131921E-06                    1_GWF-(1,11382)  1.76865595E-07                    1_GWF-(1,15939)
        595         12         45  5.41246558E-06                    1_GWF-(1,26487)  1.94187435E-07                    1_GWF-(1,11455)
        596         12         46  6.46191501E-06                    1_GWF-(1,26420) -3.04382270E-07                    1_GWF-(1,11455)
        597         12         47  8.07192128E-06                    1_GWF-(1,26487)  1.48066232E-07                    1_GWF-(1,14799)
        598         12         48  8.52201561E-06                    1_GWF-(1,26420)  2.13844952E-07                    1_GWF-(1,11455)
        599         12         49  6.40410760E-06                    1_GWF-(1,26543) -2.40689625E-07                    1_GWF-(1,11455)
        600         12         50  6.28830384E-06                    1_GWF-(1,16114)  1.41442025E-07                    1_GWF-(1,15898)
        601         13          1 -4.72351593E-06                    1_GWF-(1,26588)  2.54914423E-07                    1_GWF-(1,15939)
        602         13          2 -7.63005172E-06                    1_GWF-(1,16233)  1.06558086E-07                    1_GWF-(1,14801)
        603         13          3 -7.45882655E-06                    1_GWF-(1,26420)  1.64121500E-07                    1_GWF-(1,14799)
        604         13          4 -7.41364515E-06                    1_GWF-(1,26487)  9.38359912E-08                    1_GWF-(1,14798)
        605         13          5 -5.83523983E-06                    1_GWF-(1,26420) -1.24503362E-07                    1_GWF-(1,15939)
        606         13          6 -4.89381172E-06                    1_GWF-(1,11380)  1.23376439E-07                    1_GWF-(1,14798)
        607         13          7  3.97654092E-06                    1_GWF-(1,11380)  1.37312348E-07                    1_GWF-(1,14799)
        608         13          8 -5.70337211E-06                    1_GWF-(1,26623)  1.38917050E-07                    1_GWF-(1,14801)
        609         13          9 -5.60642423E-06                    1_GWF-(1,26622)  8.84150255E-08                    1_GWF-(1,14798)
        610         13         10 -5.62319231E-06                    1_GWF-(1,26588)  1.14808201E-07                    1_GWF-(1,14799)
        611         13         11  5.82603613E-06                    1_GWF-(1,26588)  9.47315418E-08                    1_GWF-(1,14848)
        612         13         12  5.75862133E-06                    1_GWF-(1,26543) -1.12260100E-07                    1_GWF-(1,15939)
        613         13         13  4.92756574E-06                    1_GWF-(1,26588)  1.55922801E-07                    1_GWF-(1,14798)
        614         13         14  4.35708534E-06                    1_GWF-(1,26543)  1.22765542E-07                    1_GWF-(1,14801)
        615         13         15 -3.99451222E-06                    1_GWF-(1,11380)  1.06720186E-07                    1_GWF-(1,14801)
        616         13         16  3.89854843E-06                    1_GWF-(1,11380)  1.53724077E-07                    1_GWF-(1,14798)
        617         13         17 -3.75546371E-06                     1_GWF-(1,8094)  9.86866763E-08                    1_GWF-(1,14801)
        618         13         18 -3.28073141E-06                     1_GWF-(1,8012)  1.12113707E-07                    1_GWF-(1,14801)
        619         13         19 -4.53444535E-06                    1_GWF-(1,26486)  8.19368882E-08                    1_GWF-(1,14798)
        620         13         20 -5.42002551E-06                    1_GWF-(1,26487)  8.88228875E-08                    1_GWF-(1,14798)
        621         13         21 -5.18234439E-06                    1_GWF-(1,26486)  8.97372916E-08                    1_GWF-(1,14801)
        622         13         22 -3.71323540E-06                    1_GWF-(1,26487) -7.59292347E-08                    1_GWF-(1,15939)
        623         13         23 -3.09240494E-06                    1_GWF-(1,25277)  9.92325425E-08                    1_GWF-(1,15939)
        624         13         24 -3.24116447E-06                    1_GWF-(1,26350)  9.45851458E-08                    1_GWF-(1,14848)
        625         13         25  3.80915292E-06                     1_GWF-(1,8333)  8.02257184E-08                    1_GWF-(1,15939)
        626         13         26  4.53245408E-06                     1_GWF-(1,8444)  1.11372175E-07                    1_GWF-(1,14799)
        627         13         27  3.22214445E-06                     1_GWF-(1,8452)  8.62992788E-08                    1_GWF-(1,14801)
        628         13         28 -3.36075296E-06                    1_GWF-(1,25114)  7.57662383E-08                    1_GWF-(1,14823)
        629         13         29 -3.34685452E-06                    1_GWF-(1,24428)  1.07888441E-07                    1_GWF-(1,14798)
        630         13         30  3.69230148E-06                    1_GWF-(1,26422)  7.97085166E-08                    1_GWF-(1,14801)
        631         13         31 -3.41935804E-06                    1_GWF-(1,24750)  9.21730436E-08                    1_GWF-(1,14823)
        632         13         32 -3.64389422E-06                    1_GWF-(1,26588)  1.19371087E-07                    1_GWF-(1,14798)
        633         13         33 -3.88983180E-06                    1_GWF-(1,24702)  8.89324618E-08                    1_GWF-(1,14799)
        634         13         34 -4.34980037E-06                    1_GWF-(1,26588)  8.08128438E-08                    1_GWF-(1,14823)
        635         13         35  3.88494308E-06                    1_GWF-(1,26588)  6.42784885E-08                    1_GWF-(1,14847)
        636         13         36  3.67778614E-06                    1_GWF-(1,26622)  9.43719524E-08                    1_GWF-(1,14799)
        637         13         37  3.53323651E-06                    1_GWF-(1,26623)  5.56830334E-08                    1_GWF-(1,14801)
        638         13         38  3.25761702E-06                    1_GWF-(1,26622)  5.38034110E-08                    1_GWF-(1,14823)
        639         13         39 -4.03024804E-06                    1_GWF-(1,26486)  6.18581257E-08                    1_GWF-(1,14798)
        640         13         40 -3.45355579E-06                    1_GWF-(1,26487)  5.62278877E-08                    1_GWF-(1,15939)
        641         13         41 -3.36507268E-06                    1_GWF-(1,26486)  7.26190880E-08                    1_GWF-(1,14823)
        642         13         42 -3.56797268E-06                    1_GWF-(1,26665)  6.44515397E-08                    1_GWF-(1,14798)
        643         13         43 -3.01357358E-06                    1_GWF-(1,26666)  6.36855228E-08                    1_GWF-(1,14799)
        644         13         44 -3.18476555E-06                    1_GWF-(1,26665)  5.65543442E-08                    1_GWF-(1,14936)
        645         13         45  2.71454530E-06                    1_GWF-(1,26422)  5.16795025E-08                    1_GWF-(1,14832)
        646         13         46  3.19265559E-06                    1_GWF-(1,11380)  9.62152819E-08                    1_GWF-(1,14799)
        647         13         47  2.13250816E-06                    1_GWF-(1,26421)  8.44765668E-08                    1_GWF-(1,14801)
        648         13         48  2.17924974E-06                    1_GWF-(1,24758)  6.33539204E-08                    1_GWF-(1,14823)
        649         13         49  2.53047586E-06                    1_GWF-(1,11380)  7.72789621E-08                    1_GWF-(1,14798)
        650         13         50  1.65259407E-06                    1_GWF-(1,26420)  4.84689062E-08                    1_GWF-(1,14801)
        651         14          1 -2.25368309E-06                    1_GWF-(1,26649)  4.18591274E-08                    1_GWF-(1,14799)
        652         14          2 -2.88176255E-06                    1_GWF-(1,26487)  5.45333404E-08                    1_GWF-(1,14798)
        653         14          3 -2.64545031E-06                    1_GWF-(1,26486)  6.63821561E-08                    1_GWF-(1,14801)
        654         14          4 -2.00797617E-06                    1_GWF-(1,26622)  5.15040164E-08                    1_GWF-(1,14801)
        655         14          5 -2.10098186E-06                    1_GWF-(1,26218)  4.37079583E-08                    1_GWF-(1,14798)
        656         14          6 -2.74417866E-06                    1_GWF-(1,26217)  5.63510039E-08                    1_GWF-(1,11455)
        657         14          7 -2.75607837E-06                    1_GWF-(1,26218)  5.27668441E-08                    1_GWF-(1,10344)
        658         14          8  1.88721024E-06                    1_GWF-(1,20931)  5.47632703E-08                    1_GWF-(1,14798)
        659         14          9  2.17634707E-06                    1_GWF-(1,20229)  4.73911399E-08                    1_GWF-(1,11455)
        660         14         10  2.15677919E-06                    1_GWF-(1,20576)  3.86302817E-08                    1_GWF-(1,14823)
        661         14         11  1.78832567E-06                    1_GWF-(1,20583)  3.22633311E-08                    1_GWF-(1,14826)
        662         14         12  1.80712533E-06                    1_GWF-(1,26588)  3.57328867E-08                    1_GWF-(1,11455)
        663         14         13  1.98996987E-06                    1_GWF-(1,24311)  3.50270992E-08                    1_GWF-(1,14823)
        664         14         14  1.89820141E-06                    1_GWF-(1,21419)  2.56935922E-08                    1_GWF-(1,14798)
        665         14         15  1.82052038E-06                    1_GWF-(1,21400)  3.60939163E-08                    1_GWF-(1,11455)
        666         14         16  1.78772059E-06                    1_GWF-(1,24684)  3.94501234E-08                    1_GWF-(1,14823)
        667         14         17  1.85421029E-06                    1_GWF-(1,24687)  3.42302386E-08                    1_GWF-(1,14801)
        668         14         18  1.72635427E-06                    1_GWF-(1,26589)  5.28598997E-08                    1_GWF-(1,14798)
        669         14         19  1.56082621E-06                    1_GWF-(1,26588)  3.00828490E-08                    1_GWF-(1,14801)
        670         14         20  1.43717504E-06                    1_GWF-(1,24750)  4.10855156E-08                    1_GWF-(1,14801)
        671         14         21 -1.53557942E-06                    1_GWF-(1,26422)  3.58660123E-08                    1_GWF-(1,14798)
        672         14         22  1.28375889E-06                    1_GWF-(1,26422)  3.17723625E-08                    1_GWF-(1,14798)
        673         14         23  1.40985556E-06                    1_GWF-(1,26350)  3.37922654E-08                    1_GWF-(1,14801)
        674         14         24 -1.22748809E-06                     1_GWF-(1,8474)  2.49888607E-08                    1_GWF-(1,11455)
        675         14         25 -1.50174804E-06                     1_GWF-(1,8444)  3.13687253E-08                    1_GWF-(1,14798)
        676         14         26  1.43904477E-06                    1_GWF-(1,26420)  2.91318413E-08                    1_GWF-(1,14801)
        677         14         27  1.44903454E-06                    1_GWF-(1,26487)  2.07624958E-08                    1_GWF-(1,14801)
        678         14         28  1.34110186E-06                    1_GWF-(1,26350)  3.08094501E-08                    1_GWF-(1,14826)
        679         14         29  1.04949351E-06                    1_GWF-(1,26422)  2.63094825E-08                    1_GWF-(1,10343)
        680         14         30  1.07370429E-06                    1_GWF-(1,26665)  3.99987038E-08                    1_GWF-(1,10344)
        681         14         31  1.07724910E-06                    1_GWF-(1,26666)  3.11197035E-08                    1_GWF-(1,10343)
        682         14         32  1.35372184E-06                    1_GWF-(1,26665)  2.57122606E-08                    1_GWF-(1,10344)
        683         14         33 -1.26855493E-06                    1_GWF-(1,26665)  3.31413719E-08                    1_GWF-(1,14801)
        684         14         34 -9.18285567E-07                    1_GWF-(1,26666)  2.60575793E-08                    1_GWF-(1,14798)
        685         15          1 -9.41591883E-07                    1_GWF-(1,26665)  2.46274069E-08                    1_GWF-(1,10344)
 --------------------------------------------------------------------------------------------------------------------------------------


 UBDSV1 SAVING     FLOW-JA-FACE ON UNIT   1020 AT TIME STEP      1, STRESS PERIOD      1
 UBDSV06 SAVING       DATA-SPDIS IN MODEL ML               PACKAGE NPF             CONNECTED TO MODEL ML               PACKAGE NPF              ON UNIT   1020 AT TIME STEP      1, STRESS PERIOD      1
 UBDSV06 SAVING              WEL IN MODEL ML               PACKAGE ML              CONNECTED TO MODEL ML               PACKAGE WEL_0            ON UNIT   1020 AT TIME STEP      1, STRESS PERIOD      1
 UBDSV06 SAVING              DRN IN MODEL ML               PACKAGE ML              CONNECTED TO MODEL ML               PACKAGE DRN_0            ON UNIT   1020 AT TIME STEP      1, STRESS PERIOD      1
 UBDSV06 SAVING              RIV IN MODEL ML               PACKAGE ML              CONNECTED TO MODEL ML               PACKAGE RIV_0            ON UNIT   1020 AT TIME STEP      1, STRESS PERIOD      1
 UBDSV06 SAVING              GHB IN MODEL ML               PACKAGE ML              CONNECTED TO MODEL ML               PACKAGE GHB_0            ON UNIT   1020 AT TIME STEP      1, STRESS PERIOD      1
 UBDSV06 SAVING              RCH IN MODEL ML               PACKAGE ML              CONNECTED TO MODEL ML               PACKAGE RCHA_0           ON UNIT   1020 AT TIME STEP      1, STRESS PERIOD      1

 HEAD WILL BE SAVED ON UNIT 1021 AT END OF TIME STEP    1, STRESS PERIOD    1


  VOLUME BUDGET FOR ENTIRE MODEL AT END OF TIME STEP    1, STRESS PERIOD   1
  ---------------------------------------------------------------------------------------------------

     CUMULATIVE VOLUME      L**3       RATES FOR THIS TIME STEP      L**3/T          PACKAGE NAME    
     ------------------                 ------------------------                     ----------------

           IN:                                      IN:
           ---                                      ---
                 WEL =           0.0000                   WEL =           0.0000     WEL_0           
                 DRN =           0.0000                   DRN =           0.0000     DRN_0           
                 RIV =           0.9886                   RIV =           0.9886     RIV_0           
                 GHB =           2.7630                   GHB =           2.7630     GHB_0           
                 RCH =           0.2627                   RCH =           0.2627     RCHA_0          

            TOTAL IN =           4.0143              TOTAL IN =           4.0143

          OUT:                                     OUT:
          ----                                     ----
                 WEL =           0.1543                   WEL =           0.1543     WEL_0           
                 DRN =           0.2043                   DRN =           0.2043     DRN_0           
                 RIV =           3.6508                   RIV =           3.6508     RIV_0           
                 GHB =       5.0040E-03                   GHB =       5.0040E-03     GHB_0           
                 RCH =           0.0000                   RCH =           0.0000     RCHA_0          

           TOTAL OUT =           4.0144             TOTAL OUT =           4.0144

            IN - OUT =      -2.6167E-06              IN - OUT =      -2.6167E-06

 PERCENT DISCREPANCY =          -0.00     PERCENT DISCREPANCY =          -0.00




         TIME SUMMARY AT END OF TIME STEP    1 IN STRESS PERIOD    1
                    SECONDS     MINUTES      HOURS       DAYS        YEARS
                    -----------------------------------------------------------
   TIME STEP LENGTH  1.0000     1.66667E-02 2.77778E-04 1.15741E-05 3.16881E-08
 STRESS PERIOD TIME  1.0000     1.66667E-02 2.77778E-04 1.15741E-05 3.16881E-08
         TOTAL TIME  1.0000     1.66667E-02 2.77778E-04 1.15741E-05 3.16881E-08


end timestep

