                                   MODFLOW 6
                U.S. GEOLOGICAL SURVEY MODULAR HYDROLOGIC MODEL
                            VERSION 6.2.2 07/30/2021

   MODFLOW 6 compiled Jul 31 2021 14:22:53 with IFORT compiler (ver. 19.10.3)

This software has been approved for release by the U.S. Geological 
Survey (USGS). Although the software has been subjected to rigorous 
review, the USGS reserves the right to update the software as needed 
pursuant to further analysis and review. No warranty, expressed or 
implied, is made by the USGS or the U.S. Government as to the 
functionality of the software and related material nor shall the 
fact of release constitute any such warranty. Furthermore, the 
software is released on condition that neither the USGS nor the U.S. 
Government shall be held liable for any damages resulting from its 
authorized or unauthorized use. Also refer to the USGS Water 
Resources Software User Rights Notice for complete use, copyright, 
and distribution information.


System command used to initiate simulation:
mf6

MODFLOW was compiled using uniform precision.

Real Variables
  KIND: 8
  TINY (smallest non-zero value):    2.225074-308
  HUGE (largest value):    1.797693+308
  PRECISION: 15
  BIT SIZE: 64

Integer Variables
  KIND: 4
  HUGE (largest value): 2147483647
  BIT SIZE: 32

Long Integer Variables
  KIND: 8
  HUGE (largest value): 9223372036854775807
  BIT SIZE: 64

Logical Variables
  KIND: 4
  BIT SIZE: 32
 

 OPENED mfsim.nam
 FILE TYPE:NAM   UNIT 1001   STATUS:OLD                 
 FORMAT:FORMATTED              ACCESS:SEQUENTIAL          
 ACTION:READ                

 # File generated by Flopy version 3.3.5 on 05/20/2022 at 11:44:18.

 READING SIMULATION OPTIONS
 END OF SIMULATION OPTIONS

 READING SIMULATION TIMING

 OPENED mfsim.tdis
 FILE TYPE:TDIS   UNIT 1002   STATUS:OLD                 
 FORMAT:FORMATTED              ACCESS:SEQUENTIAL          
 ACTION:READ                


 TDIS -- TEMPORAL DISCRETIZATION PACKAGE,
 VERSION 1 : 11/13/2014 - INPUT READ FROM UNIT 1002
 # File generated by Flopy version 3.3.5 on 05/20/2022 at 11:44:18.
 PROCESSING TDIS OPTIONS
    SIMULATION TIME UNIT IS SECONDS
 END OF TDIS OPTIONS
 PROCESSING TDIS DIMENSIONS
    1 STRESS PERIOD(S) IN SIMULATION
 END OF TDIS DIMENSIONS
 PROCESSING TDIS PERIODDATA


 STRESS PERIOD     LENGTH       TIME STEPS     MULTIPLIER FOR DELT
 ----------------------------------------------------------------------------
        1         1.000000          1                    1.000
 END OF TDIS PERIODDATA
 END OF SIMULATION TIMING

 READING SIMULATION MODELS
    GWF6 model ML will be created as model 1
 END OF SIMULATION MODELS

 READING SIMULATION EXCHANGES
 END OF SIMULATION EXCHANGES

 READING SOLUTIONGROUP

 Creating solution: SLN_1           

 OPENED mfsim.ims
 FILE TYPE:IMS   UNIT 1015   STATUS:OLD                 
 FORMAT:FORMATTED              ACCESS:SEQUENTIAL          
 ACTION:READ                

 END OF SIMULATION SOLUTIONGROUP

 IMS -- ITERATIVE MODEL SOLUTION PACKAGE, VERSION 6, 4/28/2017
         INPUT READ FROM UNIT 1015
 # File generated by Flopy version 3.3.5 on 05/20/2022 at 11:44:18.

 PROCESSING IMS OPTIONS
 END OF IMS OPTIONS

 PROCESSING IMS NONLINEAR
 END OF IMS NONLINEAR DATA
 ***UNDER-RELAXATION WILL NOT BE USED***
 
 ***IMS LINEAR SOLVER WILL BE USED***

 IMSLINEAR -- UNSTRUCTURED LINEAR SOLUTION PACKAGE, VERSION 8, 04/28/2017

 PROCESSING LINEAR DATA
 END OF LINEAR DATA
 
 OUTER ITERATION CONVERGENCE CRITERION    (DVCLOSE) =    0.100000E-04
 MAXIMUM NUMBER OF OUTER ITERATIONS        (MXITER) = 100
 SOLVER PRINTOUT INDEX                     (IPRIMS) = 2
 NONLINEAR ITERATION METHOD            (NONLINMETH) = 0
 LINEAR SOLUTION METHOD                   (LINMETH) = 1

       SOLUTION BY THE        CONJUGATE-GRADIENT       METHOD
 ------------------------------------------------------------------
 MAXIMUM OF 100 CALLS OF SOLUTION ROUTINE
 MAXIMUM OF 50 INTERNAL ITERATIONS PER CALL TO SOLUTION ROUTINE
 LINEAR ACCELERATION METHOD            = CG        
 MATRIX PRECONDITIONING TYPE           = INCOMPLETE LU       
 MATRIX SCALING APPROACH               = NO SCALING          
 MATRIX REORDERING APPROACH            = ORIGINAL ORDERING        
 NUMBER OF ORTHOGONALIZATIONS          = 0
 HEAD CHANGE CRITERION FOR CLOSURE     =    0.10000E-05
 RESIDUAL CHANGE CRITERION FOR CLOSURE =    0.10000E-04
 RESIDUAL CONVERGENCE OPTION           = 1
 RESIDUAL CONVERGENCE NORM             = INFINITY NORM S 
 RELAXATION FACTOR                     =    0.00000E+00



 
    Solving:  Stress period:     1    Time step:     1
 
1
                            STRESS PERIOD NO. 1, LENGTH =   1.000000    
                            -----------------------------------------------
                            NUMBER OF TIME STEPS = 1
                            MULTIPLIER FOR DELT =     1.000
                            INITIAL TIME STEP SIZE =   1.000000    

 SLN_1 OUTER ITERATION SUMMARY
 ----------------------------------------------------------------------------------------------------------
                                OUTER      INNER                    STEP   MAXIMUM CHANGE MODEL-(CELLID) OR
 OUTER ITERATION STEP       ITERATION  ITERATION  MAXIMUM CHANGE SUCCESS             MODEL-PACKAGE-(NUMBER)
 ----------------------------------------------------------------------------------------------------------
 Model                              1         50       41.183135                            1_GWF-(1,26519)
 Model                              2         50      -36.272726                            1_GWF-(1,26519)
 Model                              3         50      0.28802571                            1_GWF-(1,24079)
 Model                              4         50 -6.39274197E-02                            1_GWF-(1,21415)
 Model                              5         50 -7.76731706E-03                            1_GWF-(1,11378)
 Model                              6         50 -8.31198169E-04                            1_GWF-(1,21455)
 Model                              7         49 -3.47767121E-05                             1_GWF-(1,8200)
 Model                              8          1 -3.41525826E-07       *                    1_GWF-(1,26649)
 ----------------------------------------------------------------------------------------------------------


 8 CALLS TO NUMERICAL SOLUTION IN TIME STEP 1 STRESS PERIOD 1
 350 TOTAL ITERATIONS

 SLN_1 INNER ITERATION SUMMARY
 --------------------------------------------------------------------------------------------------------------------------------------
      TOTAL      OUTER      INNER                                                            MAXIMUM                                   
  ITERATION  ITERATION  ITERATION  MAXIMUM CHANGE      MAXIMUM CHANGE MODEL-(CELLID)        RESIDUAL    MAXIMUM RESIDUAL MODEL-(CELLID)
 --------------------------------------------------------------------------------------------------------------------------------------
          1          1          1      -11.826326                    1_GWF-(1,12785)      0.66548400                    1_GWF-(1,11179)
          2          1          2       7.9460808                    1_GWF-(1,26564)     -0.36520652                    1_GWF-(1,11175)
          3          1          3       8.5855534                    1_GWF-(1,26565)     -0.32927160                    1_GWF-(1,11178)
          4          1          4       8.3241629                    1_GWF-(1,26564)      0.32154484                    1_GWF-(1,11180)
          5          1          5       8.5495237                    1_GWF-(1,26611)      0.29399609                    1_GWF-(1,11157)
          6          1          6       9.1976346                    1_GWF-(1,26649)      0.22745906                    1_GWF-(1,11158)
          7          1          7       9.2880916                    1_GWF-(1,26622)     -0.25773060                    1_GWF-(1,11208)
          8          1          8       7.4175167                    1_GWF-(1,26665)      0.14913744                    1_GWF-(1,10961)
          9          1          9      -5.6879779                    1_GWF-(1,26665)      0.15049604                    1_GWF-(1,11158)
         10          1         10      -5.6643680                    1_GWF-(1,26666)      0.15586834                    1_GWF-(1,11207)
         11          1         11      -5.3147902                    1_GWF-(1,26665)     -0.14568465                    1_GWF-(1,11207)
         12          1         12      -5.0975025                    1_GWF-(1,26622)      0.10898345                    1_GWF-(1,11059)
         13          1         13      -6.0057461                    1_GWF-(1,26649)  9.18763799E-02                    1_GWF-(1,11052)
         14          1         14      -4.8967199                    1_GWF-(1,26622)  8.47440755E-02                    1_GWF-(1,11050)
         15          1         15      -3.9018778                    1_GWF-(1,26623)  8.27483021E-02                    1_GWF-(1,11017)
         16          1         16      -3.0412146                    1_GWF-(1,26622)  8.16968169E-02                    1_GWF-(1,11058)
         17          1         17      -3.5722213                    1_GWF-(1,26588)      0.10978290                    1_GWF-(1,10873)
         18          1         18      -4.6588795                    1_GWF-(1,26543)     -0.10129882                    1_GWF-(1,11152)
         19          1         19      -6.1540046                    1_GWF-(1,26588)  8.51622342E-02                    1_GWF-(1,11194)
         20          1         20      -4.9811568                    1_GWF-(1,26543)  8.78747030E-02                    1_GWF-(1,11151)
         21          1         21      -3.5748892                    1_GWF-(1,26544) -8.19502383E-02                    1_GWF-(1,11152)
         22          1         22      -3.8698341                    1_GWF-(1,26486) -8.92540393E-02                    1_GWF-(1,11151)
         23          1         23      -3.7328601                    1_GWF-(1,26487)  7.62553604E-02                    1_GWF-(1,11151)
         24          1         24       3.5176074                    1_GWF-(1,26487)  6.62785006E-02                    1_GWF-(1,11108)
         25          1         25       4.6263306                    1_GWF-(1,26420) -6.70028912E-02                    1_GWF-(1,11151)
         26          1         26       4.8447449                    1_GWF-(1,26487) -7.94517760E-02                    1_GWF-(1,11108)
         27          1         27       4.0594951                    1_GWF-(1,26420)  6.59110414E-02                    1_GWF-(1,11108)
         28          1         28       2.9460798                    1_GWF-(1,26487) -5.90694574E-02                    1_GWF-(1,11149)
         29          1         29       2.2232866                    1_GWF-(1,26542) -5.71266127E-02                    1_GWF-(1,11150)
         30          1         30       1.8570303                    1_GWF-(1,26623) -5.89534803E-02                    1_GWF-(1,11063)
         31          1         31       1.9957017                    1_GWF-(1,26586)  5.03657400E-02                    1_GWF-(1,11158)
         32          1         32       1.7426882                    1_GWF-(1,26422) -4.81975299E-02                    1_GWF-(1,11053)
         33          1         33      -1.9871032                    1_GWF-(1,26422) -5.16017453E-02                    1_GWF-(1,11155)
         34          1         34      -2.0337621                    1_GWF-(1,26350) -4.55085361E-02                    1_GWF-(1,11154)
         35          1         35      -2.0823579                    1_GWF-(1,26422)  4.88968155E-02                    1_GWF-(1,11154)
         36          1         36      -1.9073172                    1_GWF-(1,26350) -4.94990420E-02                    1_GWF-(1,11153)
         37          1         37      -1.7285455                    1_GWF-(1,26422)  4.88722960E-02                    1_GWF-(1,11064)
         38          1         38      -1.5832144                    1_GWF-(1,26648)  5.65905856E-02                    1_GWF-(1,11063)
         39          1         39      -1.5142544                    1_GWF-(1,26649)  4.33044309E-02                    1_GWF-(1,11150)
         40          1         40      -1.4874681                    1_GWF-(1,26623)  3.30333451E-02                    1_GWF-(1,11110)
         41          1         41      -1.3039799                    1_GWF-(1,26649) -3.42933446E-02                    1_GWF-(1,11150)
         42          1         42      -1.1585011                    1_GWF-(1,26623)  3.86695006E-02                    1_GWF-(1,11150)
         43          1         43     -0.98641002                    1_GWF-(1,21484) -3.99188244E-02                    1_GWF-(1,11151)
         44          1         44     -0.98684614                    1_GWF-(1,21412) -4.19838205E-02                    1_GWF-(1,11108)
         45          1         45      -1.2516492                    1_GWF-(1,21259) -3.01095568E-02                    1_GWF-(1,11061)
         46          1         46      -1.1627604                    1_GWF-(1,20925)  3.35316686E-02                    1_GWF-(1,14801)
         47          1         47      -1.2218921                    1_GWF-(1,20919) -4.41479992E-02                    1_GWF-(1,14801)
         48          1         48     -0.91306603                    1_GWF-(1,20918)  5.56671713E-02                    1_GWF-(1,14801)
         49          1         49     -0.67929720                    1_GWF-(1,26217) -5.96713108E-02                    1_GWF-(1,14801)
         50          1         50     -0.62086161                    1_GWF-(1,26218)  7.89306411E-02                    1_GWF-(1,14801)
         51          2          1      -37.302704                    1_GWF-(1,26519)     -0.16607392                    1_GWF-(1,26519)
         52          2          2      -13.928087                    1_GWF-(1,26607) -6.39428282E-02                    1_GWF-(1,26516)
         53          2          3      -7.2083759                    1_GWF-(1,26637)  4.30601808E-02                    1_GWF-(1,26516)
         54          2          4      -7.0969452                    1_GWF-(1,26665)  4.96159494E-02                    1_GWF-(1,14801)
         55          2          5      -4.6218851                    1_GWF-(1,26649) -4.79749023E-02                    1_GWF-(1,14801)
         56          2          6      -3.5307121                    1_GWF-(1,26589)  6.45023791E-02                    1_GWF-(1,14801)
         57          2          7      -3.0126856                    1_GWF-(1,26543) -7.22556840E-02                    1_GWF-(1,14801)
         58          2          8      -2.6475204                    1_GWF-(1,26544)      0.11205520                    1_GWF-(1,14801)
         59          2          9      -1.9257946                    1_GWF-(1,26487) -9.62051594E-02                    1_GWF-(1,14801)
         60          2         10      -1.5960790                    1_GWF-(1,26421)  8.80232274E-02                    1_GWF-(1,14801)
         61          2         11      -1.4881101                    1_GWF-(1,26422)  1.56165136E-02                    1_GWF-(1,14800)
         62          2         12      -1.1846801                    1_GWF-(1,26217)  3.33504667E-02                    1_GWF-(1,14800)
         63          2         13     -0.90785362                    1_GWF-(1,26218)  6.49119249E-02                    1_GWF-(1,14801)
         64          2         14     -0.57730361                    1_GWF-(1,26649) -6.48982013E-02                    1_GWF-(1,14801)
         65          2         15     -0.62828469                    1_GWF-(1,26622)  5.96524102E-02                    1_GWF-(1,14801)
         66          2         16     -0.81879668                    1_GWF-(1,25775)  1.58648521E-02                    1_GWF-(1,14801)
         67          2         17      0.88750576                    1_GWF-(1,26350)  6.36459982E-02                    1_GWF-(1,14800)
         68          2         18      0.88671611                    1_GWF-(1,26217)  8.93696230E-02                    1_GWF-(1,14801)
         69          2         19      0.65881270                    1_GWF-(1,26218)  6.63374245E-02                    1_GWF-(1,14800)
         70          2         20      0.47381809                    1_GWF-(1,26543)  5.13908193E-02                    1_GWF-(1,14801)
         71          2         21      0.70617069                    1_GWF-(1,26588)  1.02771157E-02                    1_GWF-(1,14801)
         72          2         22      0.74771287                    1_GWF-(1,26543)  4.66236307E-02                    1_GWF-(1,14800)
         73          2         23      0.45104992                    1_GWF-(1,26544)  8.22540244E-02                    1_GWF-(1,14801)
         74          2         24     -0.50547876                    1_GWF-(1,26422)  7.30236693E-02                    1_GWF-(1,14800)
         75          2         25     -0.70124823                    1_GWF-(1,26486)  6.20857197E-02                    1_GWF-(1,14801)
         76          2         26     -0.75592309                    1_GWF-(1,26487)  1.13739089E-02                    1_GWF-(1,14800)
         77          2         27     -0.50494887                    1_GWF-(1,26420)  3.89365906E-02                    1_GWF-(1,14800)
         78          2         28     -0.27134954                    1_GWF-(1,26543)  6.85610422E-02                    1_GWF-(1,14801)
         79          2         29      0.28387690                    1_GWF-(1,26487)  6.68534575E-02                    1_GWF-(1,14800)
         80          2         30      0.28569301                    1_GWF-(1,26420)  8.86837380E-02                    1_GWF-(1,14801)
         81          2         31      0.23330265                    1_GWF-(1,25268) -8.02765400E-02                    1_GWF-(1,14801)
         82          2         32      0.26194520                    1_GWF-(1,26218)  8.81650033E-02                    1_GWF-(1,14801)
         83          2         33      0.27636350                    1_GWF-(1,26217)  6.03874232E-02                    1_GWF-(1,14800)
         84          2         34     -0.21017685                    1_GWF-(1,26217)  4.80241172E-02                    1_GWF-(1,14801)
         85          2         35      0.18826953                    1_GWF-(1,26422)  3.03016253E-02                    1_GWF-(1,14800)
         86          2         36      0.18660951                    1_GWF-(1,26218)  2.54635500E-02                    1_GWF-(1,14801)
         87          2         37     -0.20472573                    1_GWF-(1,21290)  1.62864236E-02                    1_GWF-(1,14800)
         88          2         38     -0.20729859                    1_GWF-(1,21282)  1.36746743E-02                    1_GWF-(1,14801)
         89          2         39     -0.19324174                    1_GWF-(1,20937)  7.57194341E-03                    1_GWF-(1,14800)
         90          2         40     -0.18955906                    1_GWF-(1,20915)  5.12209206E-03                    1_GWF-(1,14801)
         91          2         41     -0.15160824                    1_GWF-(1,20908)  7.31140321E-03                    1_GWF-(1,14801)
         92          2         42      0.16091706                    1_GWF-(1,21364)  9.35557255E-03                    1_GWF-(1,14800)
         93          2         43     -0.19507916                    1_GWF-(1,26350)  1.27080598E-02                    1_GWF-(1,14801)
         94          2         44      0.21055075                    1_GWF-(1,21283)  1.22318850E-02                    1_GWF-(1,14800)
         95          2         45      0.20111320                    1_GWF-(1,21265)  1.49228319E-02                    1_GWF-(1,14801)
         96          2         46      0.17943539                    1_GWF-(1,20917)  1.15058372E-02                    1_GWF-(1,14800)
         97          2         47      0.13677519                    1_GWF-(1,20232)  1.05380722E-02                    1_GWF-(1,14801)
         98          2         48 -9.53813497E-02                    1_GWF-(1,26422)  6.92784454E-03                    1_GWF-(1,14800)
         99          2         49 -8.94905953E-02                    1_GWF-(1,26586)  6.62471461E-03                    1_GWF-(1,14801)
        100          2         50 -7.55342350E-02                    1_GWF-(1,20584)  4.98543053E-03                    1_GWF-(1,15939)
        101          3          1     -0.12530101                    1_GWF-(1,11442) -5.47636384E-03                    1_GWF-(1,11378)
        102          3          2     -0.12930873                    1_GWF-(1,11437)  5.44026411E-03                    1_GWF-(1,14800)
        103          3          3  6.93409905E-02                    1_GWF-(1,26623)  7.10270708E-03                    1_GWF-(1,14801)
        104          3          4  6.48334310E-02                    1_GWF-(1,26649)  5.78963877E-03                    1_GWF-(1,14800)
        105          3          5 -7.88114465E-02                    1_GWF-(1,21260)  7.35720086E-03                    1_GWF-(1,14801)
        106          3          6 -6.41189851E-02                    1_GWF-(1,26422)  6.70634168E-03                    1_GWF-(1,14800)
        107          3          7 -6.24852439E-02                    1_GWF-(1,26350)  6.56218076E-03                    1_GWF-(1,14801)
        108          3          8 -7.32421590E-02                    1_GWF-(1,26422)  5.03491536E-03                    1_GWF-(1,14800)
        109          3          9 -7.63711658E-02                    1_GWF-(1,26350)  5.83123239E-03                    1_GWF-(1,14801)
        110          3         10  7.09935021E-02                    1_GWF-(1,20224)  4.03398076E-03                    1_GWF-(1,14800)
        111          3         11  6.53748836E-02                    1_GWF-(1,26422)  3.33293987E-03                    1_GWF-(1,15939)
        112          3         12 -5.01360173E-02                    1_GWF-(1,26422) -2.68030484E-03                    1_GWF-(1,15939)
        113          3         13  4.89526503E-02                    1_GWF-(1,21332) -1.65153662E-03                    1_GWF-(1,11378)
        114          3         14  4.66485345E-02                    1_GWF-(1,21329) -1.74422449E-03                    1_GWF-(1,14800)
        115          3         15  3.51364041E-02                    1_GWF-(1,20989) -3.08258424E-03                    1_GWF-(1,14801)
        116          3         16 -4.66295587E-02                    1_GWF-(1,26665)  3.72636219E-03                    1_GWF-(1,14801)
        117          3         17 -4.45673988E-02                    1_GWF-(1,26672) -4.56329686E-03                    1_GWF-(1,14801)
        118          3         18 -3.66552967E-02                    1_GWF-(1,26673)  6.78716746E-03                    1_GWF-(1,14801)
        119          3         19  3.08591838E-02                    1_GWF-(1,26673)  7.52146071E-03                    1_GWF-(1,14800)
        120          3         20  4.18705735E-02                    1_GWF-(1,26672)  1.04238526E-02                    1_GWF-(1,14801)
        121          3         21 -3.67168587E-02                    1_GWF-(1,20890) -1.01051901E-02                    1_GWF-(1,14801)
        122          3         22  3.10872632E-02                    1_GWF-(1,24848)  1.24692584E-02                    1_GWF-(1,14801)
        123          3         23 -3.20557172E-02                    1_GWF-(1,20222) -1.22766235E-02                    1_GWF-(1,14801)
        124          3         24  4.62400843E-02                    1_GWF-(1,26588)  1.10708622E-02                    1_GWF-(1,14801)
        125          3         25  5.63436421E-02                    1_GWF-(1,26487)  3.42284149E-03                    1_GWF-(1,14800)
        126          3         26  5.73943728E-02                    1_GWF-(1,26420)  3.84137149E-03                    1_GWF-(1,14800)
        127          3         27  4.70238026E-02                    1_GWF-(1,26487)  9.33228615E-03                    1_GWF-(1,14801)
        128          3         28  3.05788491E-02                    1_GWF-(1,25257) -1.09697535E-02                    1_GWF-(1,14801)
        129          3         29 -3.50997747E-02                    1_GWF-(1,26486)  9.14409021E-03                    1_GWF-(1,14801)
        130          3         30 -3.51981295E-02                    1_GWF-(1,26622)  3.21029611E-03                    1_GWF-(1,14800)
        131          3         31 -4.21037237E-02                    1_GWF-(1,26649)  2.80763700E-03                    1_GWF-(1,14800)
        132          3         32 -4.53167792E-02                    1_GWF-(1,26622)  7.30741758E-03                    1_GWF-(1,14801)
        133          3         33 -3.40678819E-02                    1_GWF-(1,26649) -7.95002906E-03                    1_GWF-(1,14801)
        134          3         34  2.98071396E-02                    1_GWF-(1,25735)  7.39771412E-03                    1_GWF-(1,14801)
        135          3         35 -3.57727244E-02                    1_GWF-(1,26665)  2.80206426E-03                    1_GWF-(1,14800)
        136          3         36  4.13568773E-02                    1_GWF-(1,26665) -8.04960042E-04                    1_GWF-(1,15942)
        137          3         37  3.79100581E-02                    1_GWF-(1,26666)  2.92828251E-03                    1_GWF-(1,14801)
        138          3         38  2.91869549E-02                    1_GWF-(1,26665) -3.79202991E-03                    1_GWF-(1,14801)
        139          3         39 -2.00228419E-02                    1_GWF-(1,26665)  3.74020927E-03                    1_GWF-(1,14801)
        140          3         40  2.07961803E-02                    1_GWF-(1,26421) -3.24216518E-03                    1_GWF-(1,14801)
        141          3         41  2.30139740E-02                    1_GWF-(1,26486)  1.53125757E-03                    1_GWF-(1,14801)
        142          3         42  2.70881631E-02                    1_GWF-(1,26487)  5.47821282E-04                    1_GWF-(1,15939)
        143          3         43  2.94071967E-02                    1_GWF-(1,26543) -1.95973511E-03                    1_GWF-(1,14801)
        144          3         44  3.12480060E-02                    1_GWF-(1,26588) -2.19852795E-03                    1_GWF-(1,14800)
        145          3         45  2.28840992E-02                    1_GWF-(1,26622) -2.22343112E-03                    1_GWF-(1,14801)
        146          3         46  2.15202682E-02                    1_GWF-(1,26649) -1.50300569E-03                    1_GWF-(1,14800)
        147          3         47 -1.74375830E-02                    1_GWF-(1,26138) -1.44009926E-03                    1_GWF-(1,14801)
        148          3         48 -1.62785696E-02                    1_GWF-(1,26162) -8.67525960E-04                    1_GWF-(1,15939)
        149          3         49 -1.77733217E-02                    1_GWF-(1,26649)  6.74463791E-04                    1_GWF-(1,15939)
        150          3         50 -1.47908312E-02                    1_GWF-(1,26623)  4.75205543E-04                    1_GWF-(1,15854)
        151          4          1 -1.71797605E-02                    1_GWF-(1,11936)  3.98489122E-04                    1_GWF-(1,15939)
        152          4          2 -8.41593969E-03                    1_GWF-(1,11935) -3.84526607E-04                    1_GWF-(1,15939)
        153          4          3 -8.94429412E-03                    1_GWF-(1,26217) -6.00299641E-04                    1_GWF-(1,14801)
        154          4          4 -9.16917126E-03                    1_GWF-(1,26218) -5.72569022E-04                    1_GWF-(1,14800)
        155          4          5 -7.39300326E-03                    1_GWF-(1,26217) -7.36594862E-04                    1_GWF-(1,14801)
        156          4          6 -8.12401091E-03                    1_GWF-(1,20216) -7.34992381E-04                    1_GWF-(1,14800)
        157          4          7 -7.10368883E-03                    1_GWF-(1,20577) -8.20264347E-04                    1_GWF-(1,14801)
        158          4          8 -6.74755211E-03                    1_GWF-(1,26486) -3.45575399E-04                    1_GWF-(1,14800)
        159          4          9  6.67972648E-03                    1_GWF-(1,26486) -1.93793025E-04                    1_GWF-(1,15939)
        160          4         10  5.76644941E-03                    1_GWF-(1,26487) -4.94134791E-04                    1_GWF-(1,14801)
        161          4         11  4.51417815E-03                    1_GWF-(1,26486)  6.38674327E-04                    1_GWF-(1,14801)
        162          4         12  3.78242173E-03                    1_GWF-(1,26218)  6.89470163E-04                    1_GWF-(1,14800)
        163          4         13 -5.45906516E-03                    1_GWF-(1,26674)  7.41218549E-04                    1_GWF-(1,14801)
        164          4         14 -5.61603074E-03                    1_GWF-(1,26666) -4.91481693E-04                    1_GWF-(1,14801)
        165          4         15  5.80761308E-03                    1_GWF-(1,26666)  1.43664848E-04                    1_GWF-(1,14801)
        166          4         16  7.08294215E-03                    1_GWF-(1,26665)  4.85630119E-04                    1_GWF-(1,14801)
        167          4         17 -5.53087776E-03                    1_GWF-(1,20586)  6.44933534E-04                    1_GWF-(1,14800)
        168          4         18 -3.87986747E-03                    1_GWF-(1,20732)  7.98294697E-04                    1_GWF-(1,14801)
        169          4         19  4.14228676E-03                    1_GWF-(1,26622)  6.06929502E-04                    1_GWF-(1,14800)
        170          4         20 -4.00853087E-03                    1_GWF-(1,26622)  3.39685837E-04                    1_GWF-(1,14801)
        171          4         21 -4.88687690E-03                    1_GWF-(1,26649)  3.07552237E-04                    1_GWF-(1,14801)
        172          4         22 -4.33127750E-03                    1_GWF-(1,26622) -6.13451636E-04                    1_GWF-(1,14801)
        173          4         23 -4.45785395E-03                    1_GWF-(1,26486)  8.32297504E-04                    1_GWF-(1,14801)
        174          4         24 -4.43458050E-03                    1_GWF-(1,26487) -5.99647128E-04                    1_GWF-(1,14801)
        175          4         25 -4.20504055E-03                    1_GWF-(1,26588)  3.08914641E-04                    1_GWF-(1,14801)
        176          4         26 -3.62137643E-03                    1_GWF-(1,26487)  1.99021493E-04                    1_GWF-(1,14801)
        177          4         27 -2.75017407E-03                    1_GWF-(1,26420)  4.51248064E-04                    1_GWF-(1,14800)
        178          4         28 -2.24608842E-03                     1_GWF-(1,8218)  7.08455775E-04                    1_GWF-(1,14801)
        179          4         29 -1.67905525E-03                    1_GWF-(1,23297) -7.51541564E-04                    1_GWF-(1,14801)
        180          4         30 -1.72771319E-03                    1_GWF-(1,23180)  7.57498885E-04                    1_GWF-(1,14801)
        181          4         31  1.70691398E-03                    1_GWF-(1,26422) -5.42463886E-04                    1_GWF-(1,14801)
        182          4         32  1.86085303E-03                    1_GWF-(1,26218)  4.64313928E-04                    1_GWF-(1,14801)
        183          4         33  1.39389345E-03                    1_GWF-(1,26217) -2.91961836E-04                    1_GWF-(1,14801)
        184          4         34  1.24641683E-03                    1_GWF-(1,26350)  2.05783717E-04                    1_GWF-(1,14801)
        185          4         35  1.27398445E-03                    1_GWF-(1,26422) -1.60471004E-04                    1_GWF-(1,14801)
        186          4         36  1.33402124E-03                     1_GWF-(1,7967)  7.84486491E-05                    1_GWF-(1,14801)
        187          4         37  1.23137954E-03                     1_GWF-(1,7967)  7.92955159E-05                    1_GWF-(1,15939)
        188          4         38  1.08876004E-03                    1_GWF-(1,20233) -8.64816813E-05                    1_GWF-(1,15939)
        189          4         39  9.19565935E-04                     1_GWF-(1,8068)  7.16063541E-05                    1_GWF-(1,15939)
        190          4         40 -1.22609149E-03                    1_GWF-(1,26422)  8.36634396E-05                    1_GWF-(1,14799)
        191          4         41 -1.17882497E-03                    1_GWF-(1,26350)  6.61364945E-05                    1_GWF-(1,14801)
        192          4         42 -1.15885632E-03                    1_GWF-(1,26422)  6.52714786E-05                    1_GWF-(1,14800)
        193          4         43 -1.09870313E-03                    1_GWF-(1,26350)  8.55790283E-05                    1_GWF-(1,14801)
        194          4         44 -1.00471865E-03                    1_GWF-(1,26422)  7.10150850E-05                    1_GWF-(1,14800)
        195          4         45 -8.34265524E-04                    1_GWF-(1,20180)  8.49168036E-05                    1_GWF-(1,14801)
        196          4         46 -8.34674136E-04                    1_GWF-(1,26422)  7.21956113E-05                    1_GWF-(1,14800)
        197          4         47 -6.70864609E-04                    1_GWF-(1,26350)  7.43156619E-05                    1_GWF-(1,14801)
        198          4         48  6.20905281E-04                    1_GWF-(1,26350)  5.45056793E-05                    1_GWF-(1,14800)
        199          4         49  7.90072539E-04                    1_GWF-(1,11437)  5.84465702E-05                    1_GWF-(1,14801)
        200          4         50  7.55376146E-04                    1_GWF-(1,26586)  3.97686172E-05                    1_GWF-(1,14800)
        201          5          1 -6.91356784E-03                    1_GWF-(1,11378)  2.91731847E-05                    1_GWF-(1,14801)
        202          5          2 -1.98144728E-03                    1_GWF-(1,11369)  2.67812142E-05                    1_GWF-(1,14800)
        203          5          3 -1.01438887E-03                    1_GWF-(1,11456)  3.89510839E-05                    1_GWF-(1,14801)
        204          5          4 -7.53280570E-04                    1_GWF-(1,11458)  4.22369626E-05                    1_GWF-(1,14800)
        205          5          5  6.43802463E-04                    1_GWF-(1,11453)  6.19812568E-05                    1_GWF-(1,14801)
        206          5          6  7.36083580E-04                    1_GWF-(1,11460)  5.48241770E-05                    1_GWF-(1,14800)
        207          5          7  6.01852917E-04                    1_GWF-(1,11959)  6.44633254E-05                    1_GWF-(1,14801)
        208          5          8  6.19196223E-04                    1_GWF-(1,11997)  4.89659325E-05                    1_GWF-(1,14800)
        209          5          9  6.91595104E-04                    1_GWF-(1,11988)  4.67710443E-05                    1_GWF-(1,14801)
        210          5         10  6.19657306E-04                    1_GWF-(1,11981)  3.86201460E-05                    1_GWF-(1,14799)
        211          5         11  6.39941944E-04                    1_GWF-(1,26649)  3.68132108E-05                    1_GWF-(1,14800)
        212          5         12  6.27176999E-04                    1_GWF-(1,26486)  5.20832498E-05                    1_GWF-(1,14801)
        213          5         13 -5.49975258E-04                    1_GWF-(1,26486)  3.62863853E-05                    1_GWF-(1,14800)
        214          5         14  4.52484010E-04                    1_GWF-(1,26486)  2.83499683E-05                    1_GWF-(1,14801)
        215          5         15 -4.92901599E-04                    1_GWF-(1,26486)  2.47687976E-05                    1_GWF-(1,14799)
        216          5         16 -4.29573111E-04                    1_GWF-(1,26350) -2.38193278E-05                    1_GWF-(1,14799)
        217          5         17 -4.82123939E-04                    1_GWF-(1,26486)  2.92050796E-05                    1_GWF-(1,14799)
        218          5         18 -4.17793044E-04                    1_GWF-(1,26487) -2.17120274E-05                    1_GWF-(1,14799)
        219          5         19 -5.45456919E-04                    1_GWF-(1,26486)  2.77122298E-05                    1_GWF-(1,14799)
        220          5         20 -6.06278156E-04                    1_GWF-(1,26487)  2.41033503E-05                    1_GWF-(1,14800)
        221          5         21 -5.30763906E-04                    1_GWF-(1,26486)  1.94926040E-05                    1_GWF-(1,14798)
        222          5         22 -4.17832343E-04                    1_GWF-(1,26487)  3.47772152E-05                    1_GWF-(1,14799)
        223          5         23 -2.78739301E-04                    1_GWF-(1,21009)  2.36636357E-05                    1_GWF-(1,14798)
        224          5         24  3.71711837E-04                     1_GWF-(1,8212)  3.13377814E-05                    1_GWF-(1,14801)
        225          5         25  4.00883953E-04                     1_GWF-(1,8047) -4.47084772E-05                    1_GWF-(1,14801)
        226          5         26  3.05905226E-04                     1_GWF-(1,8043)  5.93860607E-05                    1_GWF-(1,14801)
        227          5         27  3.35157082E-04                    1_GWF-(1,26588)  6.21721298E-05                    1_GWF-(1,14800)
        228          5         28  3.38594002E-04                    1_GWF-(1,26543)  7.95102356E-05                    1_GWF-(1,14801)
        229          5         29  3.98462531E-04                    1_GWF-(1,26588) -6.91773670E-05                    1_GWF-(1,14801)
        230          5         30 -4.08365356E-04                    1_GWF-(1,26588)  2.41908974E-05                    1_GWF-(1,14801)
        231          5         31 -3.39298495E-04                    1_GWF-(1,26665)  2.47473758E-05                    1_GWF-(1,14801)
        232          5         32 -3.07785547E-04                    1_GWF-(1,26588) -4.87453298E-05                    1_GWF-(1,14801)
        233          5         33 -2.16106906E-04                    1_GWF-(1,26543)  7.71554958E-05                    1_GWF-(1,14801)
        234          5         34 -1.72483664E-04                    1_GWF-(1,26350) -8.74140434E-05                    1_GWF-(1,14801)
        235          5         35 -1.67766989E-04                    1_GWF-(1,26422)  1.01072705E-04                    1_GWF-(1,14801)
        236          5         36  1.32550937E-04                    1_GWF-(1,21268) -8.30821771E-05                    1_GWF-(1,14801)
        237          5         37 -1.14839641E-04                    1_GWF-(1,22533)  6.92115666E-05                    1_GWF-(1,14801)
        238          5         38  1.26039881E-04                     1_GWF-(1,8184) -4.87557452E-05                    1_GWF-(1,14801)
        239          5         39  1.42973028E-04                     1_GWF-(1,8092)  3.68342089E-05                    1_GWF-(1,14801)
        240          5         40 -1.70658877E-04                    1_GWF-(1,26665) -1.41691091E-05                    1_GWF-(1,14801)
        241          5         41  1.61474446E-04                    1_GWF-(1,26665) -8.43061729E-06                    1_GWF-(1,14801)
        242          5         42 -1.77344721E-04                    1_GWF-(1,26665)  2.65664281E-05                    1_GWF-(1,14801)
        243          5         43  1.56100895E-04                    1_GWF-(1,26665) -3.25660317E-05                    1_GWF-(1,14801)
        244          5         44 -1.25757342E-04                    1_GWF-(1,26665) -2.57521270E-05                    1_GWF-(1,14800)
        245          5         45 -1.08349605E-04                    1_GWF-(1,25541) -2.38420210E-05                    1_GWF-(1,14801)
        246          5         46 -9.37438123E-05                    1_GWF-(1,25533) -1.45744496E-05                    1_GWF-(1,14800)
        247          5         47 -9.03030442E-05                    1_GWF-(1,25794) -1.28713863E-05                    1_GWF-(1,14801)
        248          5         48 -9.39394383E-05                    1_GWF-(1,26135) -1.53763852E-05                    1_GWF-(1,14799)
        249          5         49 -8.55042513E-05                    1_GWF-(1,20572)  1.33475289E-05                    1_GWF-(1,14799)
        250          5         50 -8.50668049E-05                    1_GWF-(1,20572) -1.58687731E-05                    1_GWF-(1,14799)
        251          6          1 -5.79302803E-05                    1_GWF-(1,26217)  1.54350277E-05                    1_GWF-(1,14799)
        252          6          2 -7.28404410E-05                    1_GWF-(1,26218) -1.93329017E-05                    1_GWF-(1,14799)
        253          6          3 -7.69409470E-05                    1_GWF-(1,20979)  1.62232396E-05                    1_GWF-(1,14799)
        254          6          4 -8.15866028E-05                    1_GWF-(1,21356) -1.38021990E-05                    1_GWF-(1,14799)
        255          6          5 -8.61127763E-05                    1_GWF-(1,26487) -7.27564010E-06                    1_GWF-(1,14801)
        256          6          6 -1.01943654E-04                    1_GWF-(1,26486) -3.47858905E-06                    1_GWF-(1,14798)
        257          6          7 -8.64100784E-05                    1_GWF-(1,26487) -1.06427527E-05                    1_GWF-(1,14799)
        258          6          8 -7.58013243E-05                    1_GWF-(1,21689)  1.16940132E-05                    1_GWF-(1,14799)
        259          6          9 -7.36137540E-05                    1_GWF-(1,21681) -1.27441543E-05                    1_GWF-(1,14799)
        260          6         10 -6.37642853E-05                    1_GWF-(1,21679) -1.11341915E-05                    1_GWF-(1,14801)
        261          6         11 -5.81595565E-05                     1_GWF-(1,8090)  1.14149762E-05                    1_GWF-(1,14801)
        262          6         12  5.48025369E-05                    1_GWF-(1,26665)  7.91334242E-06                    1_GWF-(1,14800)
        263          6         13 -6.35154258E-05                    1_GWF-(1,26665)  4.38702826E-06                    1_GWF-(1,14801)
        264          6         14 -5.49860838E-05                    1_GWF-(1,26666)  5.25133500E-06                    1_GWF-(1,14798)
        265          6         15 -5.06953177E-05                    1_GWF-(1,21274)  8.00613393E-06                    1_GWF-(1,14799)
        266          6         16 -5.90587201E-05                    1_GWF-(1,21269)  1.10734220E-05                    1_GWF-(1,14801)
        267          6         17 -5.28135590E-05                    1_GWF-(1,20610) -1.18722301E-05                    1_GWF-(1,14801)
        268          6         18 -4.94393979E-05                    1_GWF-(1,20736)  1.26461547E-05                    1_GWF-(1,14801)
        269          6         19 -4.16845617E-05                    1_GWF-(1,20732)  7.54980406E-06                    1_GWF-(1,14800)
        270          6         20 -4.60265033E-05                    1_GWF-(1,26487)  3.21875747E-06                    1_GWF-(1,14799)
        271          6         21 -5.21216283E-05                    1_GWF-(1,26486)  6.20230033E-06                    1_GWF-(1,14801)
        272          6         22 -4.66321606E-05                    1_GWF-(1,26487) -1.08919899E-05                    1_GWF-(1,14801)
        273          6         23 -4.13389590E-05                    1_GWF-(1,26486)  1.22864554E-05                    1_GWF-(1,14801)
        274          6         24 -3.13165279E-05                    1_GWF-(1,26542) -1.05832359E-05                    1_GWF-(1,14801)
        275          6         25 -2.79807936E-05                     1_GWF-(1,8019)  9.18955982E-06                    1_GWF-(1,14801)
        276          6         26 -2.74740643E-05                     1_GWF-(1,8037) -7.61026641E-06                    1_GWF-(1,14801)
        277          6         27 -2.64327577E-05                     1_GWF-(1,8047)  5.99724409E-06                    1_GWF-(1,14801)
        278          6         28 -1.75360275E-05                     1_GWF-(1,8048)  3.47031284E-06                    1_GWF-(1,14800)
        279          6         29  2.70184192E-05                    1_GWF-(1,26588)  2.36307165E-06                    1_GWF-(1,14799)
        280          6         30  2.76284084E-05                    1_GWF-(1,26543)  1.60663953E-06                    1_GWF-(1,14801)
        281          6         31  3.17211184E-05                    1_GWF-(1,26588) -2.47251181E-06                    1_GWF-(1,14801)
        282          6         32  2.13152509E-05                    1_GWF-(1,26543)  2.93489696E-06                    1_GWF-(1,14801)
        283          6         33  1.69415820E-05                    1_GWF-(1,26420)  2.02723245E-06                    1_GWF-(1,14800)
        284          6         34  1.17867473E-05                    1_GWF-(1,26487)  1.90947597E-06                    1_GWF-(1,14799)
        285          6         35  1.40981403E-05                     1_GWF-(1,7950) -1.46154528E-06                    1_GWF-(1,14799)
        286          6         36  1.56767391E-05                     1_GWF-(1,7950)  1.55773404E-06                    1_GWF-(1,14799)
        287          6         37  1.56918558E-05                     1_GWF-(1,8084)  1.40232373E-06                    1_GWF-(1,14798)
        288          6         38  1.26490081E-05                     1_GWF-(1,7981)  2.17910672E-06                    1_GWF-(1,14799)
        289          6         39  1.00376699E-05                     1_GWF-(1,8210)  1.48922763E-06                    1_GWF-(1,14798)
        290          6         40 -1.33955777E-05                    1_GWF-(1,26422)  1.94221875E-06                    1_GWF-(1,14799)
        291          6         41 -1.33580913E-05                    1_GWF-(1,26350)  1.12621995E-06                    1_GWF-(1,14798)
        292          6         42 -1.26836104E-05                    1_GWF-(1,26422)  7.97549342E-07                    1_GWF-(1,14799)
        293          6         43 -9.53547309E-06                    1_GWF-(1,26350)  8.73063136E-07                    1_GWF-(1,14801)
        294          6         44 -1.09722730E-05                    1_GWF-(1,26623)  6.28692970E-07                    1_GWF-(1,14798)
        295          6         45 -1.14065207E-05                    1_GWF-(1,26622)  8.66807025E-07                    1_GWF-(1,14799)
        296          6         46 -9.02889115E-06                    1_GWF-(1,26623)  7.61746645E-07                    1_GWF-(1,14801)
        297          6         47 -9.53768245E-06                    1_GWF-(1,26486)  6.66294817E-07                    1_GWF-(1,14800)
        298          6         48  9.42656921E-06                    1_GWF-(1,11459)  7.25612072E-07                    1_GWF-(1,14801)
        299          6         49  1.01356189E-05                    1_GWF-(1,11454)  6.88501495E-07                    1_GWF-(1,14800)
        300          6         50  1.34096890E-05                    1_GWF-(1,11369)  1.69904615E-06                    1_GWF-(1,14799)
        301          7          1 -1.60383777E-05                    1_GWF-(1,11369) -9.37201113E-07                    1_GWF-(1,14799)
        302          7          2 -1.11518076E-05                    1_GWF-(1,11378)  9.89763009E-07                    1_GWF-(1,14799)
        303          7          3  7.74992826E-06                    1_GWF-(1,26544)  4.92462512E-07                    1_GWF-(1,14800)
        304          7          4  1.05572203E-05                    1_GWF-(1,26486)  4.26609021E-07                    1_GWF-(1,14801)
        305          7          5  8.88696531E-06                    1_GWF-(1,26487)  6.77805589E-07                    1_GWF-(1,14799)
        306          7          6  7.63325580E-06                    1_GWF-(1,26420)  6.60224406E-07                    1_GWF-(1,14798)
        307          7          7  7.16503336E-06                    1_GWF-(1,26422)  8.70835409E-07                    1_GWF-(1,14799)
        308          7          8  7.75117557E-06                    1_GWF-(1,26350)  5.65109800E-07                    1_GWF-(1,14800)
        309          7          9  7.94688692E-06                    1_GWF-(1,20578)  6.16179084E-07                    1_GWF-(1,14801)
        310          7         10  7.24159971E-06                    1_GWF-(1,20577)  8.07763063E-07                    1_GWF-(1,14799)
        311          7         11 -7.16000972E-06                    1_GWF-(1,26648)  7.10516594E-07                    1_GWF-(1,14798)
        312          7         12 -9.04909802E-06                    1_GWF-(1,26649)  7.29128804E-07                    1_GWF-(1,14799)
        313          7         13  9.40536343E-06                    1_GWF-(1,26649)  3.52596516E-07                    1_GWF-(1,14800)
        314          7         14  7.13330710E-06                    1_GWF-(1,26622)  4.30785624E-07                    1_GWF-(1,14798)
        315          7         15 -6.86247021E-06                     1_GWF-(1,7958)  7.42286014E-07                    1_GWF-(1,14799)
        316          7         16 -6.34242736E-06                     1_GWF-(1,7950) -8.43136839E-07                    1_GWF-(1,14799)
        317          7         17 -4.58051776E-06                     1_GWF-(1,7946)  1.04334021E-06                    1_GWF-(1,14799)
        318          7         18 -5.50843297E-06                    1_GWF-(1,26623) -7.12880672E-07                    1_GWF-(1,14799)
        319          7         19 -6.65884403E-06                    1_GWF-(1,26665)  4.94167667E-07                    1_GWF-(1,14799)
        320          7         20 -6.18779589E-06                    1_GWF-(1,26588)  4.23732780E-07                    1_GWF-(1,14799)
        321          7         21 -6.08592419E-06                    1_GWF-(1,26665)  6.46161498E-07                    1_GWF-(1,14798)
        322          7         22 -5.12142638E-06                    1_GWF-(1,26588)  1.02435411E-06                    1_GWF-(1,14799)
        323          7         23  4.41759046E-06                    1_GWF-(1,26588) -8.34042719E-07                    1_GWF-(1,14799)
        324          7         24  4.52035111E-06                     1_GWF-(1,8043)  7.63768595E-07                    1_GWF-(1,14799)
        325          7         25  5.33192872E-06                    1_GWF-(1,26588) -4.22929080E-07                    1_GWF-(1,14799)
        326          7         26  5.09575596E-06                    1_GWF-(1,26543)  2.43537979E-07                    1_GWF-(1,14801)
        327          7         27  4.88080099E-06                    1_GWF-(1,26588)  6.40975902E-07                    1_GWF-(1,14799)
        328          7         28  4.09513445E-06                    1_GWF-(1,26543) -7.93361043E-07                    1_GWF-(1,14799)
        329          7         29  3.12224527E-06                    1_GWF-(1,22568)  7.79177577E-07                    1_GWF-(1,14799)
        330          7         30 -3.83324537E-06                     1_GWF-(1,8046) -8.35469656E-07                    1_GWF-(1,14799)
        331          7         31 -2.94381470E-06                     1_GWF-(1,8444)  7.52049621E-07                    1_GWF-(1,14799)
        332          7         32 -2.73868904E-06                     1_GWF-(1,8215) -5.83984974E-07                    1_GWF-(1,14801)
        333          7         33 -2.32546278E-06                     1_GWF-(1,8215)  7.39509275E-07                    1_GWF-(1,14801)
        334          7         34  1.82548522E-06                    1_GWF-(1,20232) -7.32982903E-07                    1_GWF-(1,14801)
        335          7         35  2.72739074E-06                    1_GWF-(1,26622)  6.16866392E-07                    1_GWF-(1,14801)
        336          7         36 -3.07989322E-06                    1_GWF-(1,26622)  2.39826666E-07                    1_GWF-(1,14799)
        337          7         37 -2.50182391E-06                    1_GWF-(1,26649) -3.32195983E-07                    1_GWF-(1,14801)
        338          7         38  1.67177711E-06                     1_GWF-(1,8090)  6.26073051E-07                    1_GWF-(1,14801)
        339          7         39  2.10493943E-06                     1_GWF-(1,7981) -7.25426252E-07                    1_GWF-(1,14801)
        340          7         40  1.87933113E-06                     1_GWF-(1,8009)  8.15001609E-07                    1_GWF-(1,14801)
        341          7         41  1.38102337E-06                     1_GWF-(1,8016) -7.62225152E-07                    1_GWF-(1,14801)
        342          7         42 -1.29414473E-06                    1_GWF-(1,22703)  5.63598694E-07                    1_GWF-(1,14801)
        343          7         43  1.52440427E-06                    1_GWF-(1,26486) -2.83994882E-07                    1_GWF-(1,14801)
        344          7         44  2.15674984E-06                    1_GWF-(1,26487) -9.77717443E-08                    1_GWF-(1,14799)
        345          7         45  2.25950453E-06                    1_GWF-(1,26486) -2.74982626E-07                    1_GWF-(1,14800)
        346          7         46  1.74493123E-06                    1_GWF-(1,26487) -3.74995090E-07                    1_GWF-(1,14801)
        347          7         47 -1.02954087E-06                    1_GWF-(1,25663)  2.83767474E-07                    1_GWF-(1,14801)
        348          7         48 -1.12840272E-06                    1_GWF-(1,25803) -2.13741139E-07                    1_GWF-(1,14801)
        349          7         49 -9.10031363E-07                    1_GWF-(1,20571) -2.12073184E-07                    1_GWF-(1,14799)
        350          8          1 -3.41525828E-07                    1_GWF-(1,26649)  1.88516269E-07                    1_GWF-(1,14799)
 --------------------------------------------------------------------------------------------------------------------------------------



 MEMORY MANAGER TOTAL STORAGE BY DATA TYPE, IN MEGABYTES
 -------------------------------
                    ALLOCATED   
 DATA TYPE           MEMORY     
 -------------------------------
 Character        4.66090000E-02
 Logical          4.40000000E-05
 Integer          5.2037920     
 Real             11.901376     
 -------------------------------
 Total            17.151821     
 -------------------------------


 
 Run end date and time (yyyy/mm/dd hh:mm:ss): 2022/05/20 11:44:21
 Elapsed run time:  0.501 Seconds
 Normal termination of simulation.
