                                   MODFLOW 6
                U.S. GEOLOGICAL SURVEY MODULAR HYDROLOGIC MODEL
                            VERSION 6.2.2 07/30/2021

   MODFLOW 6 compiled Jul 31 2021 14:22:53 with IFORT compiler (ver. 19.10.3)

This software has been approved for release by the U.S. Geological 
Survey (USGS). Although the software has been subjected to rigorous 
review, the USGS reserves the right to update the software as needed 
pursuant to further analysis and review. No warranty, expressed or 
implied, is made by the USGS or the U.S. Government as to the 
functionality of the software and related material nor shall the 
fact of release constitute any such warranty. Furthermore, the 
software is released on condition that neither the USGS nor the U.S. 
Government shall be held liable for any damages resulting from its 
authorized or unauthorized use. Also refer to the USGS Water 
Resources Software User Rights Notice for complete use, copyright, 
and distribution information.


System command used to initiate simulation:
mf6

MODFLOW was compiled using uniform precision.

Real Variables
  KIND: 8
  TINY (smallest non-zero value):    2.225074-308
  HUGE (largest value):    1.797693+308
  PRECISION: 15
  BIT SIZE: 64

Integer Variables
  KIND: 4
  HUGE (largest value): 2147483647
  BIT SIZE: 32

Long Integer Variables
  KIND: 8
  HUGE (largest value): 9223372036854775807
  BIT SIZE: 64

Logical Variables
  KIND: 4
  BIT SIZE: 32
 

 OPENED mfsim.nam
 FILE TYPE:NAM   UNIT 1001   STATUS:OLD                 
 FORMAT:FORMATTED              ACCESS:SEQUENTIAL          
 ACTION:READ                

 # File generated by Flopy version 3.3.5 on 03/18/2022 at 18:19:39.

 READING SIMULATION OPTIONS
 END OF SIMULATION OPTIONS

 READING SIMULATION TIMING

 OPENED mfsim.tdis
 FILE TYPE:TDIS   UNIT 1002   STATUS:OLD                 
 FORMAT:FORMATTED              ACCESS:SEQUENTIAL          
 ACTION:READ                


 TDIS -- TEMPORAL DISCRETIZATION PACKAGE,
 VERSION 1 : 11/13/2014 - INPUT READ FROM UNIT 1002
 # File generated by Flopy version 3.3.5 on 03/18/2022 at 18:19:39.
 PROCESSING TDIS OPTIONS
    SIMULATION TIME UNIT IS SECONDS
 END OF TDIS OPTIONS
 PROCESSING TDIS DIMENSIONS
    1 STRESS PERIOD(S) IN SIMULATION
 END OF TDIS DIMENSIONS
 PROCESSING TDIS PERIODDATA


 STRESS PERIOD     LENGTH       TIME STEPS     MULTIPLIER FOR DELT
 ----------------------------------------------------------------------------
        1         2.000000          1                    1.000
 END OF TDIS PERIODDATA
 END OF SIMULATION TIMING

 READING SIMULATION MODELS
    GWF6 model ML will be created as model 1
 END OF SIMULATION MODELS

 READING SIMULATION EXCHANGES
 END OF SIMULATION EXCHANGES

 READING SOLUTIONGROUP

 Creating solution: SLN_1           

 OPENED mfsim.ims
 FILE TYPE:IMS   UNIT 1015   STATUS:OLD                 
 FORMAT:FORMATTED              ACCESS:SEQUENTIAL          
 ACTION:READ                

 END OF SIMULATION SOLUTIONGROUP

 IMS -- ITERATIVE MODEL SOLUTION PACKAGE, VERSION 6, 4/28/2017
         INPUT READ FROM UNIT 1015
 # File generated by Flopy version 3.3.5 on 03/18/2022 at 18:19:39.

 PROCESSING IMS OPTIONS
 END OF IMS OPTIONS

 PROCESSING IMS NONLINEAR
 END OF IMS NONLINEAR DATA
 ***UNDER-RELAXATION WILL NOT BE USED***
 
 ***IMS LINEAR SOLVER WILL BE USED***

 IMSLINEAR -- UNSTRUCTURED LINEAR SOLUTION PACKAGE, VERSION 8, 04/28/2017

 PROCESSING LINEAR DATA
 END OF LINEAR DATA
 
 OUTER ITERATION CONVERGENCE CRITERION    (DVCLOSE) =    0.100000E-04
 MAXIMUM NUMBER OF OUTER ITERATIONS        (MXITER) = 100
 SOLVER PRINTOUT INDEX                     (IPRIMS) = 2
 NONLINEAR ITERATION METHOD            (NONLINMETH) = 0
 LINEAR SOLUTION METHOD                   (LINMETH) = 1

       SOLUTION BY THE        CONJUGATE-GRADIENT       METHOD
 ------------------------------------------------------------------
 MAXIMUM OF 100 CALLS OF SOLUTION ROUTINE
 MAXIMUM OF 50 INTERNAL ITERATIONS PER CALL TO SOLUTION ROUTINE
 LINEAR ACCELERATION METHOD            = CG        
 MATRIX PRECONDITIONING TYPE           = INCOMPLETE LU       
 MATRIX SCALING APPROACH               = NO SCALING          
 MATRIX REORDERING APPROACH            = ORIGINAL ORDERING        
 NUMBER OF ORTHOGONALIZATIONS          = 0
 HEAD CHANGE CRITERION FOR CLOSURE     =    0.10000E-05
 RESIDUAL CHANGE CRITERION FOR CLOSURE =    0.10000E-04
 RESIDUAL CONVERGENCE OPTION           = 1
 RESIDUAL CONVERGENCE NORM             = INFINITY NORM S 
 RELAXATION FACTOR                     =    0.00000E+00



 
    Solving:  Stress period:     1    Time step:     1
 
1
                            STRESS PERIOD NO. 1, LENGTH =   2.000000    
                            -----------------------------------------------
                            NUMBER OF TIME STEPS = 1
                            MULTIPLIER FOR DELT =     1.000
                            INITIAL TIME STEP SIZE =   2.000000    

 SLN_1 OUTER ITERATION SUMMARY
 ----------------------------------------------------------------------------------------------------------
                                OUTER      INNER                    STEP   MAXIMUM CHANGE MODEL-(CELLID) OR
 OUTER ITERATION STEP       ITERATION  ITERATION  MAXIMUM CHANGE SUCCESS             MODEL-PACKAGE-(NUMBER)
 ----------------------------------------------------------------------------------------------------------
 Model                              1         50      -7.0459642                            1_GWF-(1,14680)
 Model                              2         50       1.7647319                            1_GWF-(1,14244)
 Model                              3         50     -0.92059765                            1_GWF-(1,15402)
 Model                              4         50      0.10558862                            1_GWF-(1,14246)
 Model                              5         50 -3.22193622E-02                            1_GWF-(1,14230)
 Model                              6         50  5.71542149E-03                            1_GWF-(1,14333)
 Model                              7         50 -1.71560377E-03                            1_GWF-(1,14315)
 Model                              8         50  2.91338942E-04                            1_GWF-(1,14339)
 Model                              9         50 -8.69616293E-05                            1_GWF-(1,14317)
 Model                             10          1  9.52450725E-07       *                    1_GWF-(1,12843)
 ----------------------------------------------------------------------------------------------------------


 10 CALLS TO NUMERICAL SOLUTION IN TIME STEP 1 STRESS PERIOD 1
 451 TOTAL ITERATIONS

 SLN_1 INNER ITERATION SUMMARY
 --------------------------------------------------------------------------------------------------------------------------------------
      TOTAL      OUTER      INNER                                                            MAXIMUM                                   
  ITERATION  ITERATION  ITERATION  MAXIMUM CHANGE      MAXIMUM CHANGE MODEL-(CELLID)        RESIDUAL    MAXIMUM RESIDUAL MODEL-(CELLID)
 --------------------------------------------------------------------------------------------------------------------------------------
          1          1          1      -5.7181456                    1_GWF-(1,10498)       7.9591635                    1_GWF-(1,11868)
          2          1          2      -4.4028147                    1_GWF-(1,12464)       4.1625009                    1_GWF-(1,11872)
          3          1          3      -3.3931424                    1_GWF-(1,12564)       3.6374244                     1_GWF-(1,1843)
          4          1          4      -3.3306711                    1_GWF-(1,12606)       4.1435605                     1_GWF-(1,2994)
          5          1          5      -2.9716711                    1_GWF-(1,12997)       3.5742856                     1_GWF-(1,2992)
          6          1          6      -2.3949671                    1_GWF-(1,13003)       4.5114514                     1_GWF-(1,1850)
          7          1          7      -1.8803329                    1_GWF-(1,13024)      -6.7771153                     1_GWF-(1,1850)
          8          1          8       1.6472647                    1_GWF-(1,13609)       10.514996                     1_GWF-(1,1850)
          9          1          9      -1.3153727                    1_GWF-(1,13206)      -12.970682                     1_GWF-(1,1850)
         10          1         10      -1.1815110                    1_GWF-(1,13304)       13.171318                     1_GWF-(1,1850)
         11          1         11      -1.1383822                    1_GWF-(1,13360)      -10.401853                     1_GWF-(1,1850)
         12          1         12      -1.1027124                    1_GWF-(1,13377)       6.7817474                     1_GWF-(1,1850)
         13          1         13      -1.1402511                    1_GWF-(1,14088)       4.4162079                       1_GWF-(1,63)
         14          1         14      -1.2619800                    1_GWF-(1,14109)      -5.9582341                    1_GWF-(1,19635)
         15          1         15      -1.1095134                    1_GWF-(1,14162)       8.4972135                    1_GWF-(1,19635)
         16          1         16      -1.0804854                    1_GWF-(1,13964)       9.1637095                    1_GWF-(1,19662)
         17          1         17      -1.0970389                    1_GWF-(1,13590)       8.0068790                    1_GWF-(1,19635)
         18          1         18     -0.90534723                     1_GWF-(1,7768)       4.9435855                    1_GWF-(1,19662)
         19          1         19     -0.82248474                     1_GWF-(1,7743)      -5.0450568                       1_GWF-(1,63)
         20          1         20      0.83726687                    1_GWF-(1,13933)      -4.7277786                       1_GWF-(1,30)
         21          1         21      0.69400451                    1_GWF-(1,13953)       4.9763686                       1_GWF-(1,30)
         22          1         22      0.73877664                    1_GWF-(1,16105)       4.8288801                       1_GWF-(1,29)
         23          1         23      0.71126800                    1_GWF-(1,17249)      -4.1326991                       1_GWF-(1,29)
         24          1         24     -0.73642059                     1_GWF-(1,4220)       3.8662623                    1_GWF-(1,19500)
         25          1         25     -0.77132589                     1_GWF-(1,4196)       3.4937900                    1_GWF-(1,19499)
         26          1         26     -0.77098882                     1_GWF-(1,4188)       3.1538074                    1_GWF-(1,19500)
         27          1         27     -0.68171437                     1_GWF-(1,3845)       4.0671752                       1_GWF-(1,29)
         28          1         28     -0.61802054                     1_GWF-(1,3837)       4.3027315                       1_GWF-(1,30)
         29          1         29     -0.56277854                     1_GWF-(1,3824)      -3.5896006                       1_GWF-(1,30)
         30          1         30     -0.50571249                    1_GWF-(1,17326)       2.7141372                       1_GWF-(1,30)
         31          1         31     -0.54671411                    1_GWF-(1,18397)       1.8815055                       1_GWF-(1,63)
         32          1         32     -0.56928240                    1_GWF-(1,17234)      -1.4954332                     1_GWF-(1,1834)
         33          1         33     -0.55161954                    1_GWF-(1,17373)       1.7815906                     1_GWF-(1,1834)
         34          1         34      0.52961903                     1_GWF-(1,3653)      -1.8642901                    1_GWF-(1,19601)
         35          1         35      0.62841845                     1_GWF-(1,3659)       2.4607207                    1_GWF-(1,19601)
         36          1         36      0.61584347                     1_GWF-(1,3590)      -2.8087176                    1_GWF-(1,19601)
         37          1         37      0.41592489                     1_GWF-(1,4016)       2.4825835                    1_GWF-(1,19601)
         38          1         38      0.61197830                     1_GWF-(1,4011)       2.2904595                       1_GWF-(1,63)
         39          1         39      0.85017498                     1_GWF-(1,3836)      -2.1885910                     1_GWF-(1,1834)
         40          1         40     -0.88981056                     1_GWF-(1,3584)       1.7444373                     1_GWF-(1,1834)
         41          1         41     -0.80105326                     1_GWF-(1,4527)       1.5339274                     1_GWF-(1,6721)
         42          1         42     -0.72645282                     1_GWF-(1,4481)       1.8971718                        1_GWF-(1,6)
         43          1         43      -1.1360489                     1_GWF-(1,3867)      -2.3777010                        1_GWF-(1,6)
         44          1         44      -1.1798379                     1_GWF-(1,4187)       2.8360915                        1_GWF-(1,6)
         45          1         45      -1.1550936                     1_GWF-(1,3856)      -3.0843139                        1_GWF-(1,6)
         46          1         46     -0.80417805                     1_GWF-(1,3852)       3.3817328                        1_GWF-(1,6)
         47          1         47      0.63157273                     1_GWF-(1,4466)      -3.2575355                        1_GWF-(1,6)
         48          1         48     -0.54054795                     1_GWF-(1,4128)       2.8995277                        1_GWF-(1,6)
         49          1         49      0.60044028                     1_GWF-(1,3847)      -2.4041930                        1_GWF-(1,6)
         50          1         50     -0.58822948                     1_GWF-(1,3608)       1.8512863                        1_GWF-(1,6)
         51          2          1      0.22025602                     1_GWF-(1,3739)      -1.6389637                        1_GWF-(1,6)
         52          2          2      0.39976610                     1_GWF-(1,3739)      -1.8598946                    1_GWF-(1,19227)
         53          2          3     -0.44554601                     1_GWF-(1,4486)       1.7305282                    1_GWF-(1,19227)
         54          2          4     -0.37644686                     1_GWF-(1,4464)       1.4389058                    1_GWF-(1,19678)
         55          2          5     -0.23358007                     1_GWF-(1,4554)      -1.9485562                    1_GWF-(1,19227)
         56          2          6      0.26855095                     1_GWF-(1,3857)       1.4603715                    1_GWF-(1,19227)
         57          2          7      0.27103610                     1_GWF-(1,4469)     -0.98134910                    1_GWF-(1,19678)
         58          2          8      0.35385188                     1_GWF-(1,4552)      -1.3987561                    1_GWF-(1,19227)
         59          2          9      0.35957593                     1_GWF-(1,4487)       1.3970119                        1_GWF-(1,6)
         60          2         10      0.30838744                     1_GWF-(1,4628)      -1.3991071                        1_GWF-(1,6)
         61          2         11      0.21852692                     1_GWF-(1,4624)       1.0053360                        1_GWF-(1,6)
         62          2         12      0.25428649                     1_GWF-(1,3720)     -0.76662107                        1_GWF-(1,6)
         63          2         13     -0.22961965                     1_GWF-(1,4613)      0.55463211                        1_GWF-(1,6)
         64          2         14     -0.24372921                     1_GWF-(1,4617)      0.60958814                      1_GWF-(1,107)
         65          2         15     -0.17105517                     1_GWF-(1,3720)     -0.59399356                      1_GWF-(1,107)
         66          2         16      0.17733009                     1_GWF-(1,3841)      0.65815339                    1_GWF-(1,19084)
         67          2         17      0.21594997                     1_GWF-(1,4189)      0.59507474                     1_GWF-(1,6636)
         68          2         18      0.22424759                     1_GWF-(1,4206)     -0.83485227                    1_GWF-(1,19601)
         69          2         19      0.19470499                     1_GWF-(1,4234)      0.85673009                    1_GWF-(1,19601)
         70          2         20      0.13977035                    1_GWF-(1,18163)     -0.79777703                    1_GWF-(1,19601)
         71          2         21      0.14427771                     1_GWF-(1,3667)      0.62753284                    1_GWF-(1,19601)
         72          2         22      0.14452511                     1_GWF-(1,3801)      0.51814660                    1_GWF-(1,19500)
         73          2         23      0.15782667                     1_GWF-(1,3686)     -0.59084659                     1_GWF-(1,6636)
         74          2         24     -0.15543965                    1_GWF-(1,18399)      0.64987042                     1_GWF-(1,6636)
         75          2         25     -0.19798642                    1_GWF-(1,18391)      0.60586904                     1_GWF-(1,6641)
         76          2         26     -0.20019847                    1_GWF-(1,18371)      0.69488871                    1_GWF-(1,19500)
         77          2         27     -0.15984319                    1_GWF-(1,18375)      0.83810257                    1_GWF-(1,19499)
         78          2         28     -0.11474901                    1_GWF-(1,16149)      0.91167250                    1_GWF-(1,19500)
         79          2         29      0.11205576                    1_GWF-(1,18400)      0.84349430                    1_GWF-(1,19499)
         80          2         30     -0.12204882                    1_GWF-(1,12908)     -0.66191374                    1_GWF-(1,19556)
         81          2         31     -0.11196352                    1_GWF-(1,13929)      0.55866398                      1_GWF-(1,107)
         82          2         32     -0.12226960                    1_GWF-(1,13928)     -0.81322212                      1_GWF-(1,107)
         83          2         33     -0.10326024                     1_GWF-(1,4013)      0.98682898                      1_GWF-(1,107)
         84          2         34     -0.10885281                     1_GWF-(1,3928)     -0.77809512                      1_GWF-(1,107)
         85          2         35  8.75392142E-02                    1_GWF-(1,17181)      0.79264551                    1_GWF-(1,19635)
         86          2         36  9.35425662E-02                    1_GWF-(1,14161)     -0.82155028                    1_GWF-(1,19635)
         87          2         37  9.58302234E-02                    1_GWF-(1,16385)     -0.68271235                    1_GWF-(1,19662)
         88          2         38  8.49745088E-02                    1_GWF-(1,16371)      0.66662746                      1_GWF-(1,107)
         89          2         39 -8.63543912E-02                     1_GWF-(1,4862)     -0.53244074                      1_GWF-(1,107)
         90          2         40  8.04096876E-02                    1_GWF-(1,13987)      0.75033157                       1_GWF-(1,30)
         91          2         41  7.41285082E-02                    1_GWF-(1,16268)     -0.81879127                       1_GWF-(1,30)
         92          2         42      0.10037012                    1_GWF-(1,16249)      0.91248816                       1_GWF-(1,30)
         93          2         43  9.18819331E-02                    1_GWF-(1,18172)     -0.76783842                       1_GWF-(1,30)
         94          2         44  7.59652269E-02                    1_GWF-(1,18165)     -0.56488659                       1_GWF-(1,63)
         95          2         45 -7.19067745E-02                     1_GWF-(1,4263)      0.51278898                      1_GWF-(1,107)
         96          2         46     -0.10956871                     1_GWF-(1,3924)     -0.47838060                      1_GWF-(1,107)
         97          2         47     -0.10491693                     1_GWF-(1,3900)      0.37254363                      1_GWF-(1,107)
         98          2         48     -0.11971241                     1_GWF-(1,3876)      0.34949024                     1_GWF-(1,6721)
         99          2         49     -0.12263750                     1_GWF-(1,3863)     -0.38610425                     1_GWF-(1,6721)
        100          2         50     -0.12561680                     1_GWF-(1,3774)     -0.41349004                    1_GWF-(1,11884)
        101          3          1     -0.67927721                    1_GWF-(1,15402)     -0.49057900                     1_GWF-(1,6721)
        102          3          2     -0.43182041                    1_GWF-(1,15410)      0.57671842                     1_GWF-(1,6721)
        103          3          3     -0.33131438                    1_GWF-(1,15414)     -0.49418231                     1_GWF-(1,1850)
        104          3          4     -0.30446542                    1_GWF-(1,15446)      0.51973577                     1_GWF-(1,1850)
        105          3          5     -0.25730388                    1_GWF-(1,18040)     -0.50722914                      1_GWF-(1,846)
        106          3          6     -0.21816886                    1_GWF-(1,18065)      0.50429876                     1_GWF-(1,1850)
        107          3          7     -0.17611357                    1_GWF-(1,18076)     -0.49930485                     1_GWF-(1,1850)
        108          3          8      0.17755705                    1_GWF-(1,18040)      0.41443538                     1_GWF-(1,1850)
        109          3          9      0.16218533                    1_GWF-(1,18065)     -0.33144406                     1_GWF-(1,1850)
        110          3         10      0.14901223                    1_GWF-(1,18076)     -0.33720168                     1_GWF-(1,6721)
        111          3         11     -0.14333454                    1_GWF-(1,18041)      0.33763297                     1_GWF-(1,6721)
        112          3         12     -0.14693709                    1_GWF-(1,18047)     -0.28181620                     1_GWF-(1,6721)
        113          3         13     -0.14912354                    1_GWF-(1,18077)     -0.28805167                    1_GWF-(1,19662)
        114          3         14 -9.83200593E-02                    1_GWF-(1,18398)      0.38979613                    1_GWF-(1,19662)
        115          3         15 -8.28411834E-02                    1_GWF-(1,18036)      0.38245925                    1_GWF-(1,19635)
        116          3         16  8.67376410E-02                    1_GWF-(1,18079)     -0.32563948                    1_GWF-(1,19635)
        117          3         17      0.10985665                    1_GWF-(1,18038)      0.25076194                    1_GWF-(1,19635)
        118          3         18  8.99478399E-02                    1_GWF-(1,18045)     -0.24457696                       1_GWF-(1,30)
        119          3         19  7.91882621E-02                    1_GWF-(1,18560)      0.29799066                       1_GWF-(1,30)
        120          3         20 -6.47703882E-02                    1_GWF-(1,18046)     -0.35592235                       1_GWF-(1,30)
        121          3         21  5.97169046E-02                    1_GWF-(1,17569)      0.30722338                       1_GWF-(1,30)
        122          3         22  5.77506398E-02                    1_GWF-(1,17562)     -0.19637174                       1_GWF-(1,30)
        123          3         23  5.17240419E-02                    1_GWF-(1,17509)      0.16339563                    1_GWF-(1,19556)
        124          3         24  5.75167029E-02                    1_GWF-(1,17490)      0.17945267                    1_GWF-(1,19500)
        125          3         25  6.04305735E-02                    1_GWF-(1,17302)     -0.19599591                    1_GWF-(1,19500)
        126          3         26  5.46904078E-02                    1_GWF-(1,17298)      0.19318288                       1_GWF-(1,30)
        127          3         27  3.96781077E-02                    1_GWF-(1,17220)     -0.15081478                       1_GWF-(1,30)
        128          3         28  3.57643023E-02                    1_GWF-(1,17216)      0.11822964                       1_GWF-(1,30)
        129          3         29  3.12377041E-02                    1_GWF-(1,17249)  7.64627390E-02                      1_GWF-(1,107)
        130          3         30 -3.68118247E-02                    1_GWF-(1,15462) -7.23620703E-02                      1_GWF-(1,107)
        131          3         31 -4.28874491E-02                    1_GWF-(1,15451)  8.96510551E-02                      1_GWF-(1,107)
        132          3         32 -3.64062986E-02                    1_GWF-(1,16113) -9.81337247E-02                    1_GWF-(1,19601)
        133          3         33 -2.90472547E-02                    1_GWF-(1,16265)      0.10816455                    1_GWF-(1,19601)
        134          3         34 -3.34078967E-02                    1_GWF-(1,16242)     -0.11233242                    1_GWF-(1,19601)
        135          3         35 -3.07017871E-02                    1_GWF-(1,16201)      0.10421329                    1_GWF-(1,19601)
        136          3         36 -3.87607028E-02                    1_GWF-(1,17174) -8.65749105E-02                    1_GWF-(1,19601)
        137          3         37 -3.18730166E-02                    1_GWF-(1,18442) -8.69570624E-02                      1_GWF-(1,107)
        138          3         38 -3.55964400E-02                    1_GWF-(1,15453)      0.11212574                     1_GWF-(1,6636)
        139          3         39 -5.17830375E-02                    1_GWF-(1,15424)      0.13269406                     1_GWF-(1,6641)
        140          3         40 -3.73293944E-02                    1_GWF-(1,15422)      0.14693888                     1_GWF-(1,6636)
        141          3         41 -3.75021147E-02                    1_GWF-(1,13970)     -0.12639918                     1_GWF-(1,6636)
        142          3         42 -4.43129066E-02                    1_GWF-(1,13959)      0.10826606                     1_GWF-(1,6636)
        143          3         43 -3.93161861E-02                    1_GWF-(1,13253)      0.12903617                      1_GWF-(1,107)
        144          3         44 -3.92028187E-02                    1_GWF-(1,13240)     -0.16292171                      1_GWF-(1,107)
        145          3         45 -3.79694596E-02                    1_GWF-(1,12914)      0.18093775                      1_GWF-(1,107)
        146          3         46 -4.11008950E-02                    1_GWF-(1,12909)     -0.19425531                      1_GWF-(1,107)
        147          3         47 -4.16479753E-02                    1_GWF-(1,12864)      0.17136708                      1_GWF-(1,107)
        148          3         48 -3.31969465E-02                    1_GWF-(1,12955)     -0.13900248                      1_GWF-(1,107)
        149          3         49 -2.63710153E-02                    1_GWF-(1,12950)      0.10934445                      1_GWF-(1,107)
        150          3         50  3.01979295E-02                    1_GWF-(1,13576)  9.88268876E-02                    1_GWF-(1,19228)
        151          4          1 -2.43325623E-02                    1_GWF-(1,10469)  8.73293144E-02                      1_GWF-(1,107)
        152          4          2  2.32161672E-02                    1_GWF-(1,12843) -9.19268490E-02                      1_GWF-(1,107)
        153          4          3  2.52631707E-02                    1_GWF-(1,12845)  8.99348003E-02                      1_GWF-(1,107)
        154          4          4  2.90915142E-02                    1_GWF-(1,12659) -8.20887285E-02                      1_GWF-(1,107)
        155          4          5  3.00994522E-02                    1_GWF-(1,13021) -6.26391061E-02                    1_GWF-(1,19678)
        156          4          6  2.43243420E-02                    1_GWF-(1,13049)  6.36365604E-02                    1_GWF-(1,19678)
        157          4          7  1.81548549E-02                    1_GWF-(1,13220)  7.46237682E-02                    1_GWF-(1,19676)
        158          4          8 -1.76071030E-02                    1_GWF-(1,18038) -7.40709570E-02                    1_GWF-(1,19676)
        159          4          9 -2.05233663E-02                    1_GWF-(1,15428)  6.61695514E-02                    1_GWF-(1,19676)
        160          4         10 -1.98239622E-02                    1_GWF-(1,13022)  5.91908251E-02                      1_GWF-(1,107)
        161          4         11 -1.76043369E-02                    1_GWF-(1,13028) -4.61674863E-02                      1_GWF-(1,107)
        162          4         12 -1.77971948E-02                    1_GWF-(1,13197)  3.98658830E-02                      1_GWF-(1,107)
        163          4         13  1.26537424E-02                    1_GWF-(1,17193)  3.55846471E-02                        1_GWF-(1,6)
        164          4         14  1.11165453E-02                    1_GWF-(1,17293)  3.24925510E-02                    1_GWF-(1,19678)
        165          4         15  9.52347894E-03                    1_GWF-(1,17176) -3.28511612E-02                    1_GWF-(1,19678)
        166          4         16  7.90381418E-03                    1_GWF-(1,16201)  2.88801442E-02                    1_GWF-(1,19678)
        167          4         17  9.54872093E-03                    1_GWF-(1,16242)  2.72187953E-02                     1_GWF-(1,6636)
        168          4         18  8.21031306E-03                    1_GWF-(1,16074) -3.44693238E-02                    1_GWF-(1,19601)
        169          4         19  8.63256021E-03                    1_GWF-(1,16030)  3.84514952E-02                    1_GWF-(1,19601)
        170          4         20  8.35144569E-03                    1_GWF-(1,16037) -3.51561421E-02                    1_GWF-(1,19601)
        171          4         21 -8.58781506E-03                    1_GWF-(1,17125)  2.96666996E-02                    1_GWF-(1,19601)
        172          4         22 -9.23541357E-03                    1_GWF-(1,17252)  2.44816058E-02                    1_GWF-(1,19500)
        173          4         23 -1.06068606E-02                    1_GWF-(1,17220) -2.59927571E-02                     1_GWF-(1,6636)
        174          4         24 -1.22277538E-02                    1_GWF-(1,17212)  2.74746251E-02                     1_GWF-(1,6636)
        175          4         25 -1.25436108E-02                    1_GWF-(1,17288) -2.88484067E-02                    1_GWF-(1,19500)
        176          4         26 -1.34991343E-02                    1_GWF-(1,17301)  3.63288515E-02                    1_GWF-(1,19500)
        177          4         27 -9.61552864E-03                    1_GWF-(1,17467)  4.33505033E-02                    1_GWF-(1,19499)
        178          4         28 -8.81723110E-03                    1_GWF-(1,17375)  4.61008022E-02                    1_GWF-(1,19500)
        179          4         29  8.87343510E-03                    1_GWF-(1,18079)  4.20864830E-02                    1_GWF-(1,19499)
        180          4         30 -9.57290146E-03                    1_GWF-(1,16116) -2.99232543E-02                    1_GWF-(1,19499)
        181          4         31  9.94987925E-03                    1_GWF-(1,17287) -2.40331428E-02                    1_GWF-(1,19685)
        182          4         32  1.34838697E-02                    1_GWF-(1,17363) -3.25830562E-02                       1_GWF-(1,30)
        183          4         33  1.43178467E-02                    1_GWF-(1,17375) -4.29536395E-02                       1_GWF-(1,29)
        184          4         34 -1.46812582E-02                    1_GWF-(1,18038) -5.09330315E-02                       1_GWF-(1,30)
        185          4         35 -1.34300181E-02                    1_GWF-(1,18079) -4.99215170E-02                    1_GWF-(1,19662)
        186          4         36 -1.17544587E-02                    1_GWF-(1,18076)  4.59369966E-02                    1_GWF-(1,19662)
        187          4         37  9.39436810E-03                    1_GWF-(1,17418) -3.80985611E-02                    1_GWF-(1,19662)
        188          4         38  1.61369408E-02                    1_GWF-(1,18077)  3.66867273E-02                       1_GWF-(1,30)
        189          4         39  1.32422617E-02                    1_GWF-(1,18068) -5.16760483E-02                       1_GWF-(1,30)
        190          4         40  1.06226935E-02                    1_GWF-(1,18041)  5.64306303E-02                       1_GWF-(1,30)
        191          4         41  9.74620007E-03                    1_GWF-(1,18034)  4.48566596E-02                       1_GWF-(1,63)
        192          4         42 -9.35898158E-03                    1_GWF-(1,18046)  3.82277727E-02                       1_GWF-(1,30)
        193          4         43 -1.09108770E-02                    1_GWF-(1,18040) -2.54235972E-02                       1_GWF-(1,30)
        194          4         44 -9.70888504E-03                    1_GWF-(1,15457)  2.26863426E-02                        1_GWF-(1,6)
        195          4         45  1.03402293E-02                    1_GWF-(1,18046) -2.67953070E-02                     1_GWF-(1,6721)
        196          4         46  1.17175412E-02                    1_GWF-(1,18034)  2.87626238E-02                     1_GWF-(1,6721)
        197          4         47  1.38789793E-02                    1_GWF-(1,18021) -2.98747766E-02                     1_GWF-(1,6721)
        198          4         48  1.20108185E-02                    1_GWF-(1,15425)  3.14082586E-02                     1_GWF-(1,6721)
        199          4         49  1.22411346E-02                    1_GWF-(1,15410) -2.57098422E-02                     1_GWF-(1,6721)
        200          4         50  1.35772941E-02                    1_GWF-(1,15402)  2.18036531E-02                     1_GWF-(1,6721)
        201          5          1 -1.40700298E-02                    1_GWF-(1,15402) -2.51584953E-02                     1_GWF-(1,6721)
        202          5          2 -1.12172892E-02                    1_GWF-(1,15410)  2.79348972E-02                     1_GWF-(1,6721)
        203          5          3 -9.67623433E-03                    1_GWF-(1,15436) -2.41389980E-02                     1_GWF-(1,6721)
        204          5          4 -1.02138283E-02                    1_GWF-(1,18021)  2.20350389E-02                     1_GWF-(1,6721)
        205          5          5 -8.52298864E-03                    1_GWF-(1,18031) -1.79532843E-02                     1_GWF-(1,6721)
        206          5          6 -7.55951615E-03                    1_GWF-(1,18046)  1.92243802E-02                     1_GWF-(1,1850)
        207          5          7  5.81258966E-03                    1_GWF-(1,18023) -2.30091427E-02                     1_GWF-(1,1850)
        208          5          8  6.70741785E-03                    1_GWF-(1,18040)  1.92471978E-02                     1_GWF-(1,1850)
        209          5          9  5.77856198E-03                    1_GWF-(1,18067) -1.66813245E-02                     1_GWF-(1,1850)
        210          5         10 -4.83824745E-03                    1_GWF-(1,18034)  1.37538761E-02                       1_GWF-(1,30)
        211          5         11 -5.01037958E-03                    1_GWF-(1,18044)  1.44690099E-02                     1_GWF-(1,6721)
        212          5         12 -5.94204963E-03                    1_GWF-(1,18069)  1.15254853E-02                       1_GWF-(1,30)
        213          5         13 -5.67732871E-03                    1_GWF-(1,18077) -1.41520866E-02                    1_GWF-(1,19662)
        214          5         14 -3.79970671E-03                    1_GWF-(1,18167)  1.70593058E-02                    1_GWF-(1,19662)
        215          5         15  2.96523736E-03                    1_GWF-(1,18076) -1.66858705E-02                    1_GWF-(1,19662)
        216          5         16  3.60822918E-03                    1_GWF-(1,18079) -1.43653716E-02                    1_GWF-(1,19635)
        217          5         17  4.03323806E-03                    1_GWF-(1,18038)  1.12232665E-02                    1_GWF-(1,19635)
        218          5         18  3.66093708E-03                    1_GWF-(1,18548) -1.06924974E-02                       1_GWF-(1,30)
        219          5         19  3.23053784E-03                    1_GWF-(1,16405)  1.21389589E-02                       1_GWF-(1,30)
        220          5         20  2.47399167E-03                    1_GWF-(1,16109) -1.36478538E-02                       1_GWF-(1,30)
        221          5         21  2.91018271E-03                    1_GWF-(1,16116)  1.19663843E-02                       1_GWF-(1,30)
        222          5         22  2.37859008E-03                    1_GWF-(1,16178) -7.53644276E-03                    1_GWF-(1,19556)
        223          5         23  2.08197977E-03                    1_GWF-(1,16150)  7.83832474E-03                    1_GWF-(1,19556)
        224          5         24  2.32054888E-03                    1_GWF-(1,17303)  8.09878151E-03                    1_GWF-(1,19500)
        225          5         25  2.53976664E-03                    1_GWF-(1,17302) -8.12040904E-03                    1_GWF-(1,19500)
        226          5         26  2.07166285E-03                    1_GWF-(1,17188)  7.88399508E-03                       1_GWF-(1,30)
        227          5         27  1.89115466E-03                    1_GWF-(1,17212)  5.86023922E-03                       1_GWF-(1,63)
        228          5         28  1.51105099E-03                    1_GWF-(1,17218)  4.61815408E-03                       1_GWF-(1,30)
        229          5         29 -1.47784721E-03                    1_GWF-(1,18367) -3.28669500E-03                    1_GWF-(1,19685)
        230          5         30 -1.46226162E-03                    1_GWF-(1,16143)  3.49563002E-03                    1_GWF-(1,19685)
        231          5         31 -1.50626168E-03                    1_GWF-(1,16037)  3.51869201E-03                    1_GWF-(1,19601)
        232          5         32 -1.46537752E-03                    1_GWF-(1,16030) -4.22584539E-03                    1_GWF-(1,19601)
        233          5         33 -1.25850896E-03                    1_GWF-(1,16005)  4.62891330E-03                    1_GWF-(1,19601)
        234          5         34 -1.31182808E-03                    1_GWF-(1,16156) -5.04702688E-03                    1_GWF-(1,19601)
        235          5         35 -1.24965845E-03                    1_GWF-(1,16199) -4.54840114E-03                    1_GWF-(1,19678)
        236          5         36 -1.33952625E-03                    1_GWF-(1,18440) -4.24047760E-03                    1_GWF-(1,19601)
        237          5         37 -1.35350267E-03                    1_GWF-(1,16143) -3.99419944E-03                     1_GWF-(1,6636)
        238          5         38 -1.27507429E-03                    1_GWF-(1,14094)  5.35614703E-03                     1_GWF-(1,6636)
        239          5         39 -1.70794883E-03                    1_GWF-(1,14068)  5.85859461E-03                     1_GWF-(1,6641)
        240          5         40 -1.60865755E-03                    1_GWF-(1,13974)  6.36283925E-03                     1_GWF-(1,6636)
        241          5         41 -1.77934623E-03                    1_GWF-(1,14055)  5.32700076E-03                     1_GWF-(1,6641)
        242          5         42 -1.82492504E-03                     1_GWF-(1,3868)  4.57940118E-03                     1_GWF-(1,6636)
        243          5         43 -1.58577064E-03                    1_GWF-(1,13275) -5.21118046E-03                     1_GWF-(1,1834)
        244          5         44  1.49246214E-03                    1_GWF-(1,16149)  5.14851131E-03                     1_GWF-(1,1834)
        245          5         45  1.62403132E-03                    1_GWF-(1,18361) -5.00814709E-03                        1_GWF-(1,6)
        246          5         46 -1.71463470E-03                    1_GWF-(1,13023)  5.83659568E-03                        1_GWF-(1,6)
        247          5         47 -1.51864859E-03                    1_GWF-(1,12659) -5.11636467E-03                        1_GWF-(1,6)
        248          5         48 -1.15987500E-03                    1_GWF-(1,12674)  4.54857981E-03                        1_GWF-(1,6)
        249          5         49 -9.07511193E-04                    1_GWF-(1,12608) -4.11239945E-03                        1_GWF-(1,6)
        250          5         50  6.53294916E-04                    1_GWF-(1,12909)  4.13294831E-03                        1_GWF-(1,6)
        251          6          1 -5.98661007E-04                    1_GWF-(1,10469) -4.00463136E-03                        1_GWF-(1,6)
        252          6          2  9.48537469E-04                    1_GWF-(1,12840)  4.08632767E-03                        1_GWF-(1,6)
        253          6          3  1.12299915E-03                    1_GWF-(1,12674) -4.23528195E-03                        1_GWF-(1,6)
        254          6          4  1.28151623E-03                    1_GWF-(1,12659)  4.33154285E-03                        1_GWF-(1,6)
        255          6          5  1.33936191E-03                    1_GWF-(1,13023) -3.24944575E-03                        1_GWF-(1,6)
        256          6          6  1.01734261E-03                    1_GWF-(1,13046)  2.68438649E-03                        1_GWF-(1,6)
        257          6          7 -9.02128417E-04                    1_GWF-(1,16149)  2.94654646E-03                    1_GWF-(1,19676)
        258          6          8 -7.92890436E-04                    1_GWF-(1,12659) -3.40339007E-03                    1_GWF-(1,19676)
        259          6          9 -8.68173729E-04                    1_GWF-(1,13009)  3.36480526E-03                    1_GWF-(1,19676)
        260          6         10 -8.01059456E-04                    1_GWF-(1,13022)  2.88028225E-03                    1_GWF-(1,19678)
        261          6         11 -6.86380701E-04                    1_GWF-(1,13048) -2.83495981E-03                    1_GWF-(1,19678)
        262          6         12 -6.41235376E-04                    1_GWF-(1,13202)  2.32864205E-03                    1_GWF-(1,19678)
        263          6         13  5.02261291E-04                    1_GWF-(1,17476) -2.20988112E-03                    1_GWF-(1,19678)
        264          6         14  5.51441643E-04                    1_GWF-(1,16143)  2.01713393E-03                    1_GWF-(1,19678)
        265          6         15  4.69950210E-04                    1_GWF-(1,18361) -1.90278606E-03                    1_GWF-(1,19678)
        266          6         16  4.07048681E-04                    1_GWF-(1,16022)  1.45085204E-03                    1_GWF-(1,19678)
        267          6         17  4.48576180E-04                    1_GWF-(1,16018)  1.18071990E-03                     1_GWF-(1,6636)
        268          6         18  4.39550817E-04                    1_GWF-(1,16005) -1.59614705E-03                    1_GWF-(1,19601)
        269          6         19  4.46579503E-04                    1_GWF-(1,16030)  1.84463132E-03                    1_GWF-(1,19601)
        270          6         20  4.26936927E-04                    1_GWF-(1,16037) -1.68059280E-03                    1_GWF-(1,19601)
        271          6         21 -3.99762897E-04                    1_GWF-(1,17117)  1.46538364E-03                    1_GWF-(1,19601)
        272          6         22 -4.03530446E-04                    1_GWF-(1,17117)  1.16617017E-03                    1_GWF-(1,19500)
        273          6         23 -5.07069670E-04                    1_GWF-(1,17218) -1.22072164E-03                     1_GWF-(1,6636)
        274          6         24 -5.85154588E-04                    1_GWF-(1,17209)  1.29596049E-03                     1_GWF-(1,6636)
        275          6         25 -6.04169887E-04                    1_GWF-(1,17188) -1.33320525E-03                    1_GWF-(1,19500)
        276          6         26 -5.81892323E-04                    1_GWF-(1,17301)  1.70530652E-03                    1_GWF-(1,19500)
        277          6         27 -4.43125666E-04                    1_GWF-(1,15461)  2.09053101E-03                    1_GWF-(1,19499)
        278          6         28 -4.51313998E-04                    1_GWF-(1,18361)  2.31533873E-03                    1_GWF-(1,19500)
        279          6         29 -4.18471847E-04                    1_GWF-(1,16128)  2.11079070E-03                    1_GWF-(1,19499)
        280          6         30 -5.23787078E-04                    1_GWF-(1,16116) -1.46526414E-03                    1_GWF-(1,19499)
        281          6         31 -4.63095116E-04                    1_GWF-(1,16225) -1.05643095E-03                    1_GWF-(1,19685)
        282          6         32 -5.43732791E-04                    1_GWF-(1,18548) -1.40665076E-03                       1_GWF-(1,30)
        283          6         33  5.79690552E-04                    1_GWF-(1,17376) -1.92759501E-03                       1_GWF-(1,29)
        284          6         34  5.59761364E-04                    1_GWF-(1,17389) -2.30851909E-03                       1_GWF-(1,30)
        285          6         35 -5.37174384E-04                    1_GWF-(1,18079) -2.33184522E-03                    1_GWF-(1,19662)
        286          6         36 -4.75757136E-04                    1_GWF-(1,18077) -2.16760813E-03                    1_GWF-(1,19635)
        287          6         37  4.29583843E-04                    1_GWF-(1,17418) -1.79568781E-03                    1_GWF-(1,19662)
        288          6         38  6.64672224E-04                    1_GWF-(1,18077)  1.46940864E-03                       1_GWF-(1,30)
        289          6         39  5.89657262E-04                    1_GWF-(1,18070) -2.15120380E-03                       1_GWF-(1,30)
        290          6         40  4.39776770E-04                    1_GWF-(1,18044)  2.49615318E-03                       1_GWF-(1,30)
        291          6         41  3.99304807E-04                    1_GWF-(1,18034)  2.13907945E-03                       1_GWF-(1,63)
        292          6         42 -4.42202331E-04                    1_GWF-(1,18068)  1.90375796E-03                       1_GWF-(1,30)
        293          6         43 -4.84780738E-04                    1_GWF-(1,18040) -1.42103249E-03                       1_GWF-(1,30)
        294          6         44 -4.22435941E-04                    1_GWF-(1,18023)  9.65131231E-04                       1_GWF-(1,30)
        295          6         45  4.64664513E-04                    1_GWF-(1,18046) -1.16021772E-03                     1_GWF-(1,6721)
        296          6         46  4.77054605E-04                    1_GWF-(1,18031)  1.17519021E-03                     1_GWF-(1,6721)
        297          6         47  5.25009572E-04                    1_GWF-(1,18021) -1.15962215E-03                     1_GWF-(1,6721)
        298          6         48  4.86949813E-04                    1_GWF-(1,15425)  1.28120007E-03                     1_GWF-(1,6721)
        299          6         49  4.47560969E-04                    1_GWF-(1,15410) -1.09135602E-03                     1_GWF-(1,6721)
        300          6         50  5.23748964E-04                    1_GWF-(1,15402)  1.10999272E-03                     1_GWF-(1,1834)
        301          7          1 -5.56380687E-04                    1_GWF-(1,15402) -1.06147945E-03                     1_GWF-(1,6721)
        302          7          2 -4.46802904E-04                    1_GWF-(1,15410)  1.16903531E-03                     1_GWF-(1,6721)
        303          7          3 -3.98172445E-04                    1_GWF-(1,15436) -1.01411232E-03                     1_GWF-(1,6721)
        304          7          4 -4.18317078E-04                    1_GWF-(1,18021)  9.58340103E-04                     1_GWF-(1,6721)
        305          7          5 -3.60933860E-04                    1_GWF-(1,18042) -8.74977218E-04                     1_GWF-(1,6721)
        306          7          6 -3.32350959E-04                    1_GWF-(1,18046)  6.38900784E-04                     1_GWF-(1,6721)
        307          7          7  2.60680373E-04                    1_GWF-(1,18023) -8.06801644E-04                       1_GWF-(1,30)
        308          7          8  2.83269117E-04                    1_GWF-(1,18040)  1.01511391E-03                       1_GWF-(1,30)
        309          7          9  2.49776382E-04                    1_GWF-(1,18067) -1.06891028E-03                       1_GWF-(1,30)
        310          7         10 -2.08687892E-04                    1_GWF-(1,18034)  1.15757124E-03                       1_GWF-(1,30)
        311          7         11 -2.03137468E-04                    1_GWF-(1,18044) -9.50364482E-04                       1_GWF-(1,30)
        312          7         12 -2.66033155E-04                    1_GWF-(1,18068)  6.44943091E-04                       1_GWF-(1,30)
        313          7         13 -2.56224453E-04                    1_GWF-(1,18077) -6.94925147E-04                    1_GWF-(1,19662)
        314          7         14 -1.79782866E-04                    1_GWF-(1,18033) -7.89010615E-04                    1_GWF-(1,19635)
        315          7         15 -1.38912728E-04                    1_GWF-(1,17530) -7.96831532E-04                    1_GWF-(1,19662)
        316          7         16  1.58599929E-04                    1_GWF-(1,18079) -6.96372945E-04                       1_GWF-(1,30)
        317          7         17  1.69177230E-04                    1_GWF-(1,18038) -5.73820183E-04                       1_GWF-(1,29)
        318          7         18  1.73468640E-04                    1_GWF-(1,18548) -4.15553543E-04                       1_GWF-(1,30)
        319          7         19  1.48885416E-04                    1_GWF-(1,16394) -2.70719919E-04                    1_GWF-(1,19685)
        320          7         20  1.14891309E-04                    1_GWF-(1,16109) -3.17886242E-04                    1_GWF-(1,19499)
        321          7         21  1.30421704E-04                    1_GWF-(1,16116)  4.40804405E-04                    1_GWF-(1,19499)
        322          7         22  1.00283894E-04                    1_GWF-(1,16128)  4.83521124E-04                    1_GWF-(1,19500)
        323          7         23  9.53167332E-05                    1_GWF-(1,16150)  4.45005908E-04                    1_GWF-(1,19499)
        324          7         24  9.74305293E-05                    1_GWF-(1,17303)  3.56447202E-04                    1_GWF-(1,19500)
        325          7         25  1.09939765E-04                    1_GWF-(1,17302) -2.79456517E-04                    1_GWF-(1,19500)
        326          7         26  1.00565857E-04                    1_GWF-(1,17188)  2.46907859E-04                    1_GWF-(1,19500)
        327          7         27  8.84457967E-05                    1_GWF-(1,17212)  3.09366351E-04                      1_GWF-(1,846)
        328          7         28  7.21623079E-05                    1_GWF-(1,17218) -2.48189985E-04                      1_GWF-(1,846)
        329          7         29 -6.70811194E-05                    1_GWF-(1,18367)  2.39153051E-04                      1_GWF-(1,846)
        330          7         30 -6.51128499E-05                    1_GWF-(1,18390) -2.03513550E-04                    1_GWF-(1,19601)
        331          7         31 -7.20914210E-05                    1_GWF-(1,16037)  2.35499620E-04                    1_GWF-(1,19601)
        332          7         32 -7.24569943E-05                    1_GWF-(1,16030) -2.28876731E-04                    1_GWF-(1,19601)
        333          7         33 -6.66642102E-05                    1_GWF-(1,16005)  2.00429585E-04                    1_GWF-(1,19601)
        334          7         34 -6.52093174E-05                    1_GWF-(1,16018)  1.99681713E-04                    1_GWF-(1,19678)
        335          7         35 -5.65331514E-05                    1_GWF-(1,18437) -2.42647849E-04                    1_GWF-(1,19678)
        336          7         36 -5.89426764E-05                    1_GWF-(1,18361)  2.78928621E-04                     1_GWF-(1,1850)
        337          7         37 -5.95679928E-05                    1_GWF-(1,16143) -3.11757719E-04                     1_GWF-(1,1850)
        338          7         38 -5.89385772E-05                    1_GWF-(1,14094)  3.75434916E-04                     1_GWF-(1,1850)
        339          7         39 -8.16941228E-05                    1_GWF-(1,14073) -3.77311087E-04                     1_GWF-(1,1850)
        340          7         40 -7.70083867E-05                    1_GWF-(1,14073)  3.71529299E-04                     1_GWF-(1,1850)
        341          7         41 -8.42779571E-05                    1_GWF-(1,13374)  2.56825809E-04                     1_GWF-(1,1849)
        342          7         42 -9.49209110E-05                     1_GWF-(1,3868)  2.31337238E-04                     1_GWF-(1,1834)
        343          7         43 -7.47183275E-05                     1_GWF-(1,3871) -2.68457135E-04                     1_GWF-(1,1834)
        344          7         44  7.33551833E-05                    1_GWF-(1,16149)  2.43041809E-04                        1_GWF-(1,6)
        345          7         45  7.52260002E-05                    1_GWF-(1,18361) -2.44750660E-04                        1_GWF-(1,6)
        346          7         46 -8.42846252E-05                    1_GWF-(1,13023)  2.84012302E-04                        1_GWF-(1,6)
        347          7         47 -7.22723693E-05                    1_GWF-(1,12659) -2.53556391E-04                        1_GWF-(1,6)
        348          7         48 -5.74858505E-05                    1_GWF-(1,12674)  2.25295896E-04                        1_GWF-(1,6)
        349          7         49  4.06819107E-05                     1_GWF-(1,3812) -2.09679534E-04                        1_GWF-(1,6)
        350          7         50  2.08590002E-05                    1_GWF-(1,13583)  2.13619487E-04                        1_GWF-(1,6)
        351          8          1 -2.28886839E-05                    1_GWF-(1,10469) -2.04202482E-04                        1_GWF-(1,6)
        352          8          2  4.35787963E-05                    1_GWF-(1,12840)  2.04779116E-04                        1_GWF-(1,6)
        353          8          3  5.25957271E-05                    1_GWF-(1,12674) -2.12319628E-04                        1_GWF-(1,6)
        354          8          4  5.85503299E-05                    1_GWF-(1,12659)  2.17529712E-04                        1_GWF-(1,6)
        355          8          5  6.26182827E-05                    1_GWF-(1,13023) -1.65521683E-04                        1_GWF-(1,6)
        356          8          6 -4.88121872E-05                    1_GWF-(1,18361)  1.43908918E-04                        1_GWF-(1,6)
        357          8          7 -4.71335551E-05                    1_GWF-(1,16149) -1.36225137E-04                     1_GWF-(1,1834)
        358          8          8 -3.98903639E-05                    1_GWF-(1,16141) -1.59868379E-04                    1_GWF-(1,19676)
        359          8          9  4.17312135E-05                     1_GWF-(1,3869)  1.56873566E-04                    1_GWF-(1,19676)
        360          8         10 -3.70556823E-05                    1_GWF-(1,12964) -1.29074304E-04                    1_GWF-(1,19676)
        361          8         11 -3.05919388E-05                    1_GWF-(1,13046) -1.33487708E-04                    1_GWF-(1,19678)
        362          8         12  2.79357077E-05                    1_GWF-(1,14092)  1.08184895E-04                    1_GWF-(1,19678)
        363          8         13  2.30783799E-05                    1_GWF-(1,18070) -9.79775048E-05                    1_GWF-(1,19678)
        364          8         14  2.58489788E-05                    1_GWF-(1,16143) -9.88396185E-05                    1_GWF-(1,19636)
        365          8         15  2.33699915E-05                    1_GWF-(1,18361)  9.09456611E-05                    1_GWF-(1,19636)
        366          8         16  1.97034018E-05                    1_GWF-(1,16107) -1.13055000E-04                    1_GWF-(1,19601)
        367          8         17  2.07367028E-05                    1_GWF-(1,16018) -1.02480430E-04                    1_GWF-(1,19556)
        368          8         18  2.22469021E-05                    1_GWF-(1,16005) -7.41280044E-05                    1_GWF-(1,19678)
        369          8         19  2.12846441E-05                    1_GWF-(1,16030)  7.00806007E-05                    1_GWF-(1,19678)
        370          8         20  2.15908537E-05                    1_GWF-(1,16037) -6.23602416E-05                    1_GWF-(1,19678)
        371          8         21 -1.90759358E-05                    1_GWF-(1,14092)  6.45366676E-05                    1_GWF-(1,19678)
        372          8         22 -1.99750853E-05                    1_GWF-(1,17117)  4.95851781E-05                     1_GWF-(1,6636)
        373          8         23 -2.20971312E-05                    1_GWF-(1,17141)  6.47766662E-05                    1_GWF-(1,19556)
        374          8         24 -2.58798960E-05                    1_GWF-(1,17212)  8.95566877E-05                    1_GWF-(1,19601)
        375          8         25 -2.86766144E-05                    1_GWF-(1,17185) -8.91491624E-05                    1_GWF-(1,19601)
        376          8         26 -2.53398385E-05                    1_GWF-(1,17302)  8.73515946E-05                    1_GWF-(1,19601)
        377          8         27 -2.31554932E-05                    1_GWF-(1,15462)  7.74597216E-05                    1_GWF-(1,19662)
        378          8         28 -2.64515493E-05                    1_GWF-(1,18361) -7.13672309E-05                    1_GWF-(1,19662)
        379          8         29 -2.30303178E-05                    1_GWF-(1,18380)  7.88346370E-05                    1_GWF-(1,19662)
        380          8         30 -2.65227292E-05                    1_GWF-(1,16116)  9.21071206E-05                    1_GWF-(1,19500)
        381          8         31 -2.15414690E-05                    1_GWF-(1,16225) -1.20284580E-04                    1_GWF-(1,19500)
        382          8         32 -2.39744957E-05                    1_GWF-(1,16409)  1.19637481E-04                    1_GWF-(1,19500)
        383          8         33 -2.79873613E-05                    1_GWF-(1,18548) -1.00036112E-04                    1_GWF-(1,19500)
        384          8         34  2.38455863E-05                    1_GWF-(1,17392)  5.96447089E-05                    1_GWF-(1,19500)
        385          8         35  2.52321487E-05                    1_GWF-(1,17389) -4.42112396E-05                     1_GWF-(1,1834)
        386          8         36 -2.36167435E-05                    1_GWF-(1,18077)  6.00756306E-05                     1_GWF-(1,1834)
        387          8         37  2.14401602E-05                    1_GWF-(1,17418)  8.42077658E-05                       1_GWF-(1,29)
        388          8         38  3.05440817E-05                    1_GWF-(1,18077)  1.06550726E-04                       1_GWF-(1,30)
        389          8         39  2.77900245E-05                    1_GWF-(1,18070) -1.21688317E-04                       1_GWF-(1,30)
        390          8         40  1.89890475E-05                    1_GWF-(1,18044)  1.27663319E-04                       1_GWF-(1,30)
        391          8         41 -1.80867120E-05                    1_GWF-(1,18076)  1.09788635E-04                       1_GWF-(1,63)
        392          8         42 -2.12385145E-05                    1_GWF-(1,18067)  9.49356782E-05                       1_GWF-(1,30)
        393          8         43 -2.30100811E-05                    1_GWF-(1,18042) -7.04979233E-05                       1_GWF-(1,30)
        394          8         44 -2.03739559E-05                    1_GWF-(1,18023)  4.83368762E-05                       1_GWF-(1,30)
        395          8         45  2.00776960E-05                    1_GWF-(1,18046) -5.41929583E-05                     1_GWF-(1,6721)
        396          8         46  2.09535328E-05                    1_GWF-(1,18031)  5.33023596E-05                     1_GWF-(1,6721)
        397          8         47  2.30563744E-05                    1_GWF-(1,18021) -5.30868012E-05                     1_GWF-(1,6721)
        398          8         48  2.14758419E-05                    1_GWF-(1,15425)  6.00673283E-05                     1_GWF-(1,6721)
        399          8         49  1.94733588E-05                    1_GWF-(1,15410) -5.14333345E-05                     1_GWF-(1,6721)
        400          8         50  2.29990941E-05                    1_GWF-(1,15402)  5.40279846E-05                     1_GWF-(1,1834)
        401          9          1 -2.42113720E-05                    1_GWF-(1,15402) -4.85729437E-05                     1_GWF-(1,6721)
        402          9          2 -1.95902437E-05                    1_GWF-(1,15410)  5.31869017E-05                     1_GWF-(1,6721)
        403          9          3 -1.76861642E-05                    1_GWF-(1,15436) -4.49900985E-05                     1_GWF-(1,6721)
        404          9          4 -1.83408139E-05                    1_GWF-(1,18021)  4.21866207E-05                     1_GWF-(1,6721)
        405          9          5 -1.59607198E-05                    1_GWF-(1,18042)  3.86029674E-05                      1_GWF-(1,846)
        406          9          6 -1.45843832E-05                    1_GWF-(1,18046) -3.81483488E-05                      1_GWF-(1,846)
        407          9          7 -1.18105711E-05                    1_GWF-(1,18389) -3.68549711E-05                       1_GWF-(1,30)
        408          9          8  1.22907633E-05                    1_GWF-(1,18040)  3.92152586E-05                       1_GWF-(1,30)
        409          9          9  1.08557398E-05                    1_GWF-(1,18067)  3.05291264E-05                       1_GWF-(1,63)
        410          9         10 -9.40963596E-06                    1_GWF-(1,18034) -2.73144476E-05                    1_GWF-(1,19635)
        411          9         11 -9.12199858E-06                    1_GWF-(1,18041)  2.78009728E-05                    1_GWF-(1,19635)
        412          9         12 -1.23991959E-05                    1_GWF-(1,18068)  2.66501703E-05                      1_GWF-(1,846)
        413          9         13 -1.17992640E-05                    1_GWF-(1,18077)  4.10133411E-05                       1_GWF-(1,30)
        414          9         14 -9.06567181E-06                    1_GWF-(1,17418) -4.18192979E-05                       1_GWF-(1,30)
        415          9         15 -7.03255294E-06                    1_GWF-(1,18036)  3.94044697E-05                       1_GWF-(1,30)
        416          9         16  7.65751787E-06                    1_GWF-(1,18079) -3.61666815E-05                       1_GWF-(1,30)
        417          9         17  7.77302655E-06                    1_GWF-(1,18036) -2.90122252E-05                       1_GWF-(1,29)
        418          9         18  8.39469791E-06                    1_GWF-(1,18548) -2.37515708E-05                       1_GWF-(1,30)
        419          9         19  6.97100167E-06                    1_GWF-(1,16394)  1.97979880E-05                       1_GWF-(1,30)
        420          9         20  5.38909282E-06                    1_GWF-(1,16109) -2.13480387E-05                     1_GWF-(1,1850)
        421          9         21  6.23469857E-06                    1_GWF-(1,16116)  2.86760995E-05                     1_GWF-(1,1850)
        422          9         22  4.82160287E-06                    1_GWF-(1,16128) -2.99063562E-05                     1_GWF-(1,1850)
        423          9         23  4.98839351E-06                    1_GWF-(1,18361)  2.58372625E-05                     1_GWF-(1,1850)
        424          9         24  4.66568361E-06                    1_GWF-(1,14181) -1.72641756E-05                     1_GWF-(1,1850)
        425          9         25  4.89872557E-06                    1_GWF-(1,17302)  1.59135709E-05                    1_GWF-(1,19500)
        426          9         26  4.86910465E-06                    1_GWF-(1,17188) -1.66029196E-05                    1_GWF-(1,19500)
        427          9         27  4.15856707E-06                    1_GWF-(1,17218)  1.56386880E-05                    1_GWF-(1,19500)
        428          9         28  3.43720730E-06                    1_GWF-(1,17218)  1.29740099E-05                     1_GWF-(1,1850)
        429          9         29 -3.19269401E-06                    1_GWF-(1,18367)  1.09581724E-05                    1_GWF-(1,19635)
        430          9         30 -3.06560271E-06                    1_GWF-(1,18390) -8.79828086E-06                    1_GWF-(1,19635)
        431          9         31 -3.45152886E-06                    1_GWF-(1,16037)  9.10683262E-06                    1_GWF-(1,19601)
        432          9         32 -3.51369620E-06                    1_GWF-(1,16030) -1.05039784E-05                    1_GWF-(1,19601)
        433          9         33 -3.35150719E-06                    1_GWF-(1,16005)  1.08704371E-05                    1_GWF-(1,19601)
        434          9         34 -3.12189792E-06                    1_GWF-(1,16018)  1.19768331E-05                    1_GWF-(1,19678)
        435          9         35 -2.58687326E-06                    1_GWF-(1,16107) -1.37765483E-05                    1_GWF-(1,19678)
        436          9         36 -2.83824489E-06                    1_GWF-(1,18163)  1.19718483E-05                    1_GWF-(1,19678)
        437          9         37 -2.85912229E-06                    1_GWF-(1,14129)  9.36512505E-06                        1_GWF-(1,6)
        438          9         38 -2.93241661E-06                     1_GWF-(1,3655)  1.12883318E-05                     1_GWF-(1,6636)
        439          9         39 -3.95186494E-06                    1_GWF-(1,14073)  1.27302908E-05                     1_GWF-(1,6641)
        440          9         40 -3.76130544E-06                    1_GWF-(1,14073)  1.44682276E-05                     1_GWF-(1,6636)
        441          9         41 -4.00200953E-06                    1_GWF-(1,13374)  1.27575948E-05                     1_GWF-(1,6641)
        442          9         42 -4.81603288E-06                     1_GWF-(1,3869)  1.15928163E-05                     1_GWF-(1,1834)
        443          9         43 -3.58066526E-06                     1_GWF-(1,3871) -1.28312927E-05                     1_GWF-(1,1834)
        444          9         44  3.59540282E-06                    1_GWF-(1,16149)  1.18365513E-05                        1_GWF-(1,6)
        445          9         45  3.63479694E-06                    1_GWF-(1,18361) -1.17878096E-05                        1_GWF-(1,6)
        446          9         46 -4.00370207E-06                    1_GWF-(1,13023)  1.37024094E-05                        1_GWF-(1,6)
        447          9         47 -3.40243407E-06                    1_GWF-(1,12659) -1.23329580E-05                        1_GWF-(1,6)
        448          9         48 -2.83498694E-06                    1_GWF-(1,12674)  1.09892351E-05                        1_GWF-(1,6)
        449          9         49 -1.99036897E-06                    1_GWF-(1,12839) -1.01814455E-05                        1_GWF-(1,6)
        450          9         50  8.76835232E-07                    1_GWF-(1,17331)  9.82485224E-06                        1_GWF-(1,6)
        451         10          1  9.52450725E-07                    1_GWF-(1,12843) -9.24745142E-06                        1_GWF-(1,6)
 --------------------------------------------------------------------------------------------------------------------------------------



 MEMORY MANAGER TOTAL STORAGE BY DATA TYPE, IN MEGABYTES
 -------------------------------
                    ALLOCATED   
 DATA TYPE           MEMORY     
 -------------------------------
 Character        4.34890000E-02
 Logical          4.40000000E-05
 Integer          3.8629360     
 Real             8.8243920     
 -------------------------------
 Total            12.730861     
 -------------------------------


 
 Run end date and time (yyyy/mm/dd hh:mm:ss): 2022/03/21 22:37:25
 Elapsed run time:  0.414 Seconds
 Normal termination of simulation.
