                                   MODFLOW 6
                U.S. GEOLOGICAL SURVEY MODULAR HYDROLOGIC MODEL
                            VERSION 6.2.2 07/30/2021

   MODFLOW 6 compiled Jul 31 2021 14:22:53 with IFORT compiler (ver. 19.10.3)

This software has been approved for release by the U.S. Geological 
Survey (USGS). Although the software has been subjected to rigorous 
review, the USGS reserves the right to update the software as needed 
pursuant to further analysis and review. No warranty, expressed or 
implied, is made by the USGS or the U.S. Government as to the 
functionality of the software and related material nor shall the 
fact of release constitute any such warranty. Furthermore, the 
software is released on condition that neither the USGS nor the U.S. 
Government shall be held liable for any damages resulting from its 
authorized or unauthorized use. Also refer to the USGS Water 
Resources Software User Rights Notice for complete use, copyright, 
and distribution information.


System command used to initiate simulation:
mf6

MODFLOW was compiled using uniform precision.

Real Variables
  KIND: 8
  TINY (smallest non-zero value):    2.225074-308
  HUGE (largest value):    1.797693+308
  PRECISION: 15
  BIT SIZE: 64

Integer Variables
  KIND: 4
  HUGE (largest value): 2147483647
  BIT SIZE: 32

Long Integer Variables
  KIND: 8
  HUGE (largest value): 9223372036854775807
  BIT SIZE: 64

Logical Variables
  KIND: 4
  BIT SIZE: 32
 

 OPENED mfsim.nam
 FILE TYPE:NAM   UNIT 1001   STATUS:OLD                 
 FORMAT:FORMATTED              ACCESS:SEQUENTIAL          
 ACTION:READ                

 # File generated by Flopy version 3.3.5 on 03/29/2022 at 18:29:07.

 READING SIMULATION OPTIONS
 END OF SIMULATION OPTIONS

 READING SIMULATION TIMING

 OPENED mfsim.tdis
 FILE TYPE:TDIS   UNIT 1002   STATUS:OLD                 
 FORMAT:FORMATTED              ACCESS:SEQUENTIAL          
 ACTION:READ                


 TDIS -- TEMPORAL DISCRETIZATION PACKAGE,
 VERSION 1 : 11/13/2014 - INPUT READ FROM UNIT 1002
 # File generated by Flopy version 3.3.5 on 03/29/2022 at 18:29:07.
 PROCESSING TDIS OPTIONS
    SIMULATION TIME UNIT IS SECONDS
 END OF TDIS OPTIONS
 PROCESSING TDIS DIMENSIONS
    1 STRESS PERIOD(S) IN SIMULATION
 END OF TDIS DIMENSIONS
 PROCESSING TDIS PERIODDATA


 STRESS PERIOD     LENGTH       TIME STEPS     MULTIPLIER FOR DELT
 ----------------------------------------------------------------------------
        1         2.000000          1                    1.000
 END OF TDIS PERIODDATA
 END OF SIMULATION TIMING

 READING SIMULATION MODELS
    GWF6 model ML will be created as model 1
 END OF SIMULATION MODELS

 READING SIMULATION EXCHANGES
 END OF SIMULATION EXCHANGES

 READING SOLUTIONGROUP

 Creating solution: SLN_1           

 OPENED mfsim.ims
 FILE TYPE:IMS   UNIT 1015   STATUS:OLD                 
 FORMAT:FORMATTED              ACCESS:SEQUENTIAL          
 ACTION:READ                

 END OF SIMULATION SOLUTIONGROUP

 IMS -- ITERATIVE MODEL SOLUTION PACKAGE, VERSION 6, 4/28/2017
         INPUT READ FROM UNIT 1015
 # File generated by Flopy version 3.3.5 on 03/29/2022 at 18:29:07.

 PROCESSING IMS OPTIONS
 END OF IMS OPTIONS

 PROCESSING IMS NONLINEAR
 END OF IMS NONLINEAR DATA
 ***UNDER-RELAXATION WILL NOT BE USED***
 
 ***IMS LINEAR SOLVER WILL BE USED***

 IMSLINEAR -- UNSTRUCTURED LINEAR SOLUTION PACKAGE, VERSION 8, 04/28/2017

 PROCESSING LINEAR DATA
 END OF LINEAR DATA
 
 OUTER ITERATION CONVERGENCE CRITERION    (DVCLOSE) =    0.100000E-04
 MAXIMUM NUMBER OF OUTER ITERATIONS        (MXITER) = 100
 SOLVER PRINTOUT INDEX                     (IPRIMS) = 2
 NONLINEAR ITERATION METHOD            (NONLINMETH) = 0
 LINEAR SOLUTION METHOD                   (LINMETH) = 1

       SOLUTION BY THE        CONJUGATE-GRADIENT       METHOD
 ------------------------------------------------------------------
 MAXIMUM OF 100 CALLS OF SOLUTION ROUTINE
 MAXIMUM OF 50 INTERNAL ITERATIONS PER CALL TO SOLUTION ROUTINE
 LINEAR ACCELERATION METHOD            = CG        
 MATRIX PRECONDITIONING TYPE           = INCOMPLETE LU       
 MATRIX SCALING APPROACH               = NO SCALING          
 MATRIX REORDERING APPROACH            = ORIGINAL ORDERING        
 NUMBER OF ORTHOGONALIZATIONS          = 0
 HEAD CHANGE CRITERION FOR CLOSURE     =    0.10000E-05
 RESIDUAL CHANGE CRITERION FOR CLOSURE =    0.10000E-04
 RESIDUAL CONVERGENCE OPTION           = 1
 RESIDUAL CONVERGENCE NORM             = INFINITY NORM S 
 RELAXATION FACTOR                     =    0.00000E+00



 
    Solving:  Stress period:     1    Time step:     1
 
1
                            STRESS PERIOD NO. 1, LENGTH =   2.000000    
                            -----------------------------------------------
                            NUMBER OF TIME STEPS = 1
                            MULTIPLIER FOR DELT =     1.000
                            INITIAL TIME STEP SIZE =   2.000000    

 SLN_1 OUTER ITERATION SUMMARY
 ----------------------------------------------------------------------------------------------------------
                                OUTER      INNER                    STEP   MAXIMUM CHANGE MODEL-(CELLID) OR
 OUTER ITERATION STEP       ITERATION  ITERATION  MAXIMUM CHANGE SUCCESS             MODEL-PACKAGE-(NUMBER)
 ----------------------------------------------------------------------------------------------------------
 Model                              1         50       13.312981                            1_GWF-(1,26519)
 Model                              2         50      -8.4784973                            1_GWF-(1,26517)
 Model                              3         50     -0.10304986                             1_GWF-(1,4055)
 Model                              4         50 -3.66274102E-03                            1_GWF-(1,23573)
 Model                              5         44 -1.44149336E-04                             1_GWF-(1,1459)
 Model                              6          1  9.11504455E-07       *                    1_GWF-(1,26217)
 ----------------------------------------------------------------------------------------------------------


 6 CALLS TO NUMERICAL SOLUTION IN TIME STEP 1 STRESS PERIOD 1
 245 TOTAL ITERATIONS

 SLN_1 INNER ITERATION SUMMARY
 --------------------------------------------------------------------------------------------------------------------------------------
      TOTAL      OUTER      INNER                                                            MAXIMUM                                   
  ITERATION  ITERATION  ITERATION  MAXIMUM CHANGE      MAXIMUM CHANGE MODEL-(CELLID)        RESIDUAL    MAXIMUM RESIDUAL MODEL-(CELLID)
 --------------------------------------------------------------------------------------------------------------------------------------
          1          1          1      -11.245820                    1_GWF-(1,12785)      0.31101429                      1_GWF-(1,612)
          2          1          2      -5.8098913                    1_GWF-(1,12779)     -0.10952958                    1_GWF-(1,12782)
          3          1          3       4.2056065                    1_GWF-(1,26559)  6.87421012E-02                    1_GWF-(1,12755)
          4          1          4       3.3041764                    1_GWF-(1,26512)  8.55244781E-02                      1_GWF-(1,267)
          5          1          5       2.5794935                    1_GWF-(1,26519) -5.89243086E-02                      1_GWF-(1,612)
          6          1          6       2.6741698                    1_GWF-(1,26649)  3.75659381E-02                    1_GWF-(1,12755)
          7          1          7       2.7122460                    1_GWF-(1,26663)  3.75238832E-02                    1_GWF-(1,26663)
          8          1          8       2.9052049                    1_GWF-(1,26665)  3.97943552E-02                    1_GWF-(1,26665)
          9          1          9       2.1326788                    1_GWF-(1,26666) -3.62229581E-02                    1_GWF-(1,26665)
         10          1         10       1.9925986                    1_GWF-(1,26665)  3.34312427E-02                    1_GWF-(1,12772)
         11          1         11       1.4135057                    1_GWF-(1,26544)  2.28320952E-02                    1_GWF-(1,26622)
         12          1         12      -1.2164551                    1_GWF-(1,26622)  2.74726385E-02                    1_GWF-(1,26649)
         13          1         13      -1.4666996                    1_GWF-(1,26649)  2.69060359E-02                    1_GWF-(1,26622)
         14          1         14      -1.0421462                    1_GWF-(1,26622) -1.92854062E-02                    1_GWF-(1,26622)
         15          1         15     -0.75593355                    1_GWF-(1,26623) -1.85043497E-02                    1_GWF-(1,12772)
         16          1         16     -0.57289942                    1_GWF-(1,26586)  1.67075218E-02                    1_GWF-(1,17772)
         17          1         17      0.54593637                    1_GWF-(1,26589) -1.34631552E-02                    1_GWF-(1,26588)
         18          1         18      0.79605300                    1_GWF-(1,26588)  1.93357099E-02                    1_GWF-(1,26588)
         19          1         19     -0.81097167                    1_GWF-(1,26588) -1.48812278E-02                    1_GWF-(1,26588)
         20          1         20     -0.59648875                    1_GWF-(1,26543) -1.09137599E-02                    1_GWF-(1,26543)
         21          1         21     -0.49515828                    1_GWF-(1,26544) -9.19112756E-03                    1_GWF-(1,17772)
         22          1         22     -0.55235893                    1_GWF-(1,26486)  8.12012733E-03                    1_GWF-(1,26487)
         23          1         23     -0.57019075                    1_GWF-(1,26487)  8.49851109E-03                    1_GWF-(1,26486)
         24          1         24     -0.48226631                    1_GWF-(1,26486) -8.09368224E-03                    1_GWF-(1,26420)
         25          1         25     -0.36305400                    1_GWF-(1,26487) -6.95076225E-03                    1_GWF-(1,26487)
         26          1         26      0.27506252                    1_GWF-(1,26487)  4.09376715E-03                    1_GWF-(1,26487)
         27          1         27     -0.23157978                    1_GWF-(1,26623) -6.44049439E-03                     1_GWF-(1,7772)
         28          1         28      0.20413550                    1_GWF-(1,26422)  4.48736032E-03                     1_GWF-(1,7773)
         29          1         29     -0.19672929                    1_GWF-(1,26648) -3.03664115E-03                    1_GWF-(1,12755)
         30          1         30      0.17807890                    1_GWF-(1,26422) -5.40785315E-03                     1_GWF-(1,7773)
         31          1         31      0.19141784                    1_GWF-(1,26350)  5.61529980E-03                     1_GWF-(1,7773)
         32          1         32     -0.20007288                    1_GWF-(1,26350)  3.17582305E-03                    1_GWF-(1,26422)
         33          1         33     -0.24044357                    1_GWF-(1,26422) -5.75605020E-03                     1_GWF-(1,7773)
         34          1         34     -0.20802111                    1_GWF-(1,26350)  5.45995294E-03                     1_GWF-(1,7773)
         35          1         35     -0.15508053                    1_GWF-(1,26422) -2.59957663E-03                     1_GWF-(1,7784)
         36          1         36     -0.12778466                    1_GWF-(1,25391) -3.44848898E-03                     1_GWF-(1,7773)
         37          1         37     -0.11679810                     1_GWF-(1,1988)  3.87781589E-03                     1_GWF-(1,7773)
         38          1         38     -0.10468302                     1_GWF-(1,1829)  2.04495199E-03                    1_GWF-(1,12778)
         39          1         39 -9.94619733E-02                     1_GWF-(1,1813)  2.84806543E-03                     1_GWF-(1,7784)
         40          1         40     -0.10051452                     1_GWF-(1,1797) -2.76298594E-03                    1_GWF-(1,12772)
         41          1         41     -0.10419744                     1_GWF-(1,1131) -1.88245793E-03                    1_GWF-(1,17775)
         42          1         42     -0.10300754                     1_GWF-(1,1121)  1.57972930E-03                     1_GWF-(1,7784)
         43          1         43 -9.19201116E-02                     1_GWF-(1,1304) -2.39676282E-03                    1_GWF-(1,12772)
         44          1         44 -8.82315341E-02                     1_GWF-(1,1162) -1.86086086E-03                    1_GWF-(1,17775)
         45          1         45 -9.40261306E-02                     1_GWF-(1,1247)  1.70709893E-03                    1_GWF-(1,12756)
         46          1         46 -8.82611031E-02                     1_GWF-(1,1201) -1.50723265E-03                    1_GWF-(1,12772)
         47          1         47 -7.85204909E-02                     1_GWF-(1,1031)  1.50305672E-03                    1_GWF-(1,26218)
         48          1         48 -7.94803089E-02                    1_GWF-(1,26218) -1.43335202E-03                    1_GWF-(1,26218)
         49          1         49 -7.97822790E-02                    1_GWF-(1,26217)  1.52606043E-03                    1_GWF-(1,26218)
         50          1         50 -8.39208195E-02                    1_GWF-(1,26218) -1.42641733E-03                    1_GWF-(1,26218)
         51          2          1      -8.2110924                    1_GWF-(1,26458)     -0.19003750                    1_GWF-(1,26458)
         52          2          2      -4.0907716                    1_GWF-(1,26513)  3.97617889E-02                    1_GWF-(1,26458)
         53          2          3      -1.4404943                    1_GWF-(1,26395)  2.43910109E-02                    1_GWF-(1,26459)
         54          2          4      -1.6700057                    1_GWF-(1,26665)  1.78482043E-02                    1_GWF-(1,26566)
         55          2          5      -1.1405465                    1_GWF-(1,26648)  1.45950719E-02                    1_GWF-(1,26513)
         56          2          6      -1.0995536                    1_GWF-(1,26622)  8.73545190E-03                    1_GWF-(1,26637)
         57          2          7     -0.81499024                    1_GWF-(1,26588) -9.18038211E-03                    1_GWF-(1,26512)
         58          2          8     -0.73521978                    1_GWF-(1,26544)  7.50307376E-03                    1_GWF-(1,26512)
         59          2          9     -0.57825236                    1_GWF-(1,26487)  4.86916625E-03                    1_GWF-(1,26665)
         60          2         10     -0.46358836                    1_GWF-(1,26350) -6.57870331E-03                    1_GWF-(1,26665)
         61          2         11     -0.39382598                    1_GWF-(1,26422)  4.86652714E-03                    1_GWF-(1,26665)
         62          2         12     -0.27280473                    1_GWF-(1,26218) -3.03696309E-03                    1_GWF-(1,26665)
         63          2         13     -0.18686811                    1_GWF-(1,26218)  2.39561173E-03                    1_GWF-(1,26649)
         64          2         14     -0.12134658                    1_GWF-(1,26649)  2.83088705E-03                    1_GWF-(1,26622)
         65          2         15     -0.15439690                    1_GWF-(1,26622) -4.27272254E-03                    1_GWF-(1,26622)
         66          2         16      0.16910734                    1_GWF-(1,26622)  4.10904137E-03                    1_GWF-(1,26622)
         67          2         17     -0.17944881                    1_GWF-(1,25506) -2.57052879E-03                    1_GWF-(1,26628)
         68          2         18      0.16648338                    1_GWF-(1,26217) -1.66160611E-03                    1_GWF-(1,26588)
         69          2         19      0.18112750                    1_GWF-(1,26218)  2.91700476E-03                    1_GWF-(1,26625)
         70          2         20      0.11017045                    1_GWF-(1,26217) -2.71773868E-03                    1_GWF-(1,26588)
         71          2         21      0.14838017                    1_GWF-(1,26588) -3.02580159E-03                    1_GWF-(1,26543)
         72          2         22      0.17064797                    1_GWF-(1,26543)  2.89708996E-03                    1_GWF-(1,26625)
         73          2         23      0.10557509                    1_GWF-(1,26544) -1.62960668E-03                    1_GWF-(1,26218)
         74          2         24     -0.10200206                    1_GWF-(1,26217) -2.17223393E-03                    1_GWF-(1,26625)
         75          2         25     -0.13964894                    1_GWF-(1,26486)  2.09648359E-03                    1_GWF-(1,26625)
         76          2         26     -0.13988505                    1_GWF-(1,26487) -2.25125194E-03                    1_GWF-(1,26487)
         77          2         27     -0.10610951                    1_GWF-(1,26420) -2.35290743E-03                    1_GWF-(1,26625)
         78          2         28 -7.59131647E-02                    1_GWF-(1,26543) -1.51905844E-03                    1_GWF-(1,26218)
         79          2         29  6.12856012E-02                    1_GWF-(1,26218)  1.31290981E-03                    1_GWF-(1,26218)
         80          2         30 -4.57970642E-02                    1_GWF-(1,21586) -1.58855330E-03                    1_GWF-(1,26625)
         81          2         31 -4.12920242E-02                    1_GWF-(1,21238)  1.57057184E-03                    1_GWF-(1,26625)
         82          2         32 -4.12779856E-02                    1_GWF-(1,21229) -1.06691024E-03                    1_GWF-(1,17771)
         83          2         33 -3.45007774E-02                    1_GWF-(1,21161)  8.54455862E-04                    1_GWF-(1,17771)
         84          2         34 -3.09309099E-02                    1_GWF-(1,19123)  1.19756068E-03                    1_GWF-(1,26625)
         85          2         35  3.56068394E-02                    1_GWF-(1,26486) -7.28358975E-04                    1_GWF-(1,26625)
         86          2         36  3.53270346E-02                    1_GWF-(1,26350)  6.46988601E-04                    1_GWF-(1,17771)
         87          2         37  4.16785394E-02                    1_GWF-(1,26422)  8.62487972E-04                    1_GWF-(1,26625)
         88          2         38  3.97464269E-02                    1_GWF-(1,26350) -6.31760646E-04                    1_GWF-(1,26625)
         89          2         39  3.24864076E-02                    1_GWF-(1,26422)  6.59237934E-04                    1_GWF-(1,17771)
         90          2         40 -2.28830801E-02                    1_GWF-(1,20880)  6.93560064E-04                    1_GWF-(1,26625)
         91          2         41 -2.27665303E-02                    1_GWF-(1,20790) -7.45794247E-04                    1_GWF-(1,26625)
         92          2         42 -1.68132028E-02                    1_GWF-(1,20098)  5.15009609E-04                    1_GWF-(1,17771)
         93          2         43 -1.67985889E-02                    1_GWF-(1,20069) -4.25435252E-04                    1_GWF-(1,17771)
         94          2         44 -1.62227566E-02                    1_GWF-(1,20055) -6.93972348E-04                    1_GWF-(1,26625)
         95          2         45 -1.58819209E-02                    1_GWF-(1,20043)  5.32442190E-04                    1_GWF-(1,26625)
         96          2         46 -1.46903573E-02                    1_GWF-(1,20035) -4.02013261E-04                    1_GWF-(1,17771)
         97          2         47 -1.31642822E-02                    1_GWF-(1,20012) -4.59478200E-04                    1_GWF-(1,26625)
         98          2         48 -1.16423072E-02                    1_GWF-(1,19989)  5.09831225E-04                    1_GWF-(1,26625)
         99          2         49 -1.11526326E-02                    1_GWF-(1,26648) -2.59095781E-04                    1_GWF-(1,17771)
        100          2         50 -9.20492411E-03                    1_GWF-(1,26649)  3.00043492E-04                    1_GWF-(1,17771)
        101          3          1 -6.53682509E-03                    1_GWF-(1,26672) -1.97763578E-04                    1_GWF-(1,17771)
        102          3          2  6.95760613E-03                    1_GWF-(1,26623) -1.39323223E-04                    1_GWF-(1,26663)
        103          3          3  7.77592965E-03                    1_GWF-(1,26422)  2.67217607E-04                    1_GWF-(1,17771)
        104          3          4  7.02730323E-03                    1_GWF-(1,20015) -2.93639076E-04                    1_GWF-(1,17771)
        105          3          5  7.74010135E-03                    1_GWF-(1,15666)  1.77101817E-04                    1_GWF-(1,26552)
        106          3          6  8.07301500E-03                    1_GWF-(1,20000) -1.72027916E-04                    1_GWF-(1,26625)
        107          3          7  7.94943398E-03                    1_GWF-(1,20045) -2.62060992E-04                    1_GWF-(1,17771)
        108          3          8  7.64005328E-03                    1_GWF-(1,15460)  2.45292777E-04                    1_GWF-(1,17771)
        109          3          9  7.08454747E-03                    1_GWF-(1,15463) -1.84826503E-04                    1_GWF-(1,26552)
        110          3         10  7.42571243E-03                    1_GWF-(1,20787)  2.09283435E-04                    1_GWF-(1,26625)
        111          3         11  7.82132514E-03                    1_GWF-(1,19200)  2.65052651E-04                    1_GWF-(1,17771)
        112          3         12 -8.42828311E-03                    1_GWF-(1,26422) -1.63996888E-04                    1_GWF-(1,17771)
        113          3         13 -8.69468159E-03                    1_GWF-(1,26350) -1.44392126E-04                    1_GWF-(1,26350)
        114          3         14 -9.07919872E-03                    1_GWF-(1,26422)  2.04155147E-04                    1_GWF-(1,17771)
        115          3         15 -8.20905102E-03                    1_GWF-(1,26350) -1.73915380E-04                    1_GWF-(1,17771)
        116          3         16  7.78722442E-03                    1_GWF-(1,26350)  1.24971767E-04                    1_GWF-(1,26350)
        117          3         17  6.53821532E-03                    1_GWF-(1,26422)  1.99916853E-04                    1_GWF-(1,17771)
        118          3         18  4.81882733E-03                    1_GWF-(1,21545) -1.94951771E-04                    1_GWF-(1,17771)
        119          3         19  4.52776475E-03                    1_GWF-(1,21572) -1.20046404E-04                    1_GWF-(1,26506)
        120          3         20  5.10693376E-03                    1_GWF-(1,26544) -1.30748758E-04                    1_GWF-(1,26625)
        121          3         21  5.64473206E-03                    1_GWF-(1,26486) -1.47952573E-04                    1_GWF-(1,17771)
        122          3         22  4.76816369E-03                    1_GWF-(1,26588) -1.15597162E-04                    1_GWF-(1,26543)
        123          3         23  6.27811542E-03                    1_GWF-(1,26543) -1.22947135E-04                    1_GWF-(1,26588)
        124          3         24  5.96414471E-03                    1_GWF-(1,26588) -9.71031738E-05                    1_GWF-(1,17771)
        125          3         25  3.57423359E-03                    1_GWF-(1,26420)  6.30926246E-05                    1_GWF-(1,26625)
        126          3         26 -2.60529201E-03                    1_GWF-(1,26622) -7.59623963E-05                    1_GWF-(1,26625)
        127          3         27 -3.54507891E-03                    1_GWF-(1,26649) -6.30887205E-05                    1_GWF-(1,17771)
        128          3         28 -3.40420697E-03                    1_GWF-(1,26588) -6.50922849E-05                    1_GWF-(1,26622)
        129          3         29 -4.61174336E-03                    1_GWF-(1,26543)  7.45633357E-05                    1_GWF-(1,26588)
        130          3         30 -4.32819025E-03                    1_GWF-(1,26588) -6.71211109E-05                    1_GWF-(1,26588)
        131          3         31 -2.74920471E-03                    1_GWF-(1,26543)  4.19857171E-05                    1_GWF-(1,26218)
        132          3         32 -3.34605687E-03                    1_GWF-(1,26218) -4.23618132E-05                    1_GWF-(1,26218)
        133          3         33 -2.37728587E-03                    1_GWF-(1,26217) -4.70270284E-05                    1_GWF-(1,26665)
        134          3         34  2.37996036E-03                    1_GWF-(1,26665)  5.49701859E-05                    1_GWF-(1,26665)
        135          3         35 -2.07409773E-03                    1_GWF-(1,26665) -4.50256847E-05                    1_GWF-(1,26665)
        136          3         36  1.95573490E-03                    1_GWF-(1,26665) -3.48226735E-05                    1_GWF-(1,26487)
        137          3         37  1.87130244E-03                    1_GWF-(1,26487) -3.00235353E-05                    1_GWF-(1,26218)
        138          3         38  1.97407403E-03                    1_GWF-(1,26218)  2.60712093E-05                    1_GWF-(1,26623)
        139          3         39  1.70121588E-03                    1_GWF-(1,26217) -3.19170966E-05                    1_GWF-(1,26623)
        140          3         40  1.76274482E-03                    1_GWF-(1,26420) -2.61400627E-05                    1_GWF-(1,26665)
        141          3         41  1.63615098E-03                    1_GWF-(1,26487)  2.21647913E-05                    1_GWF-(1,26665)
        142          3         42  1.29774854E-03                    1_GWF-(1,26486)  2.28410294E-05                    1_GWF-(1,26346)
        143          3         43 -1.13492031E-03                    1_GWF-(1,25521)  1.72378635E-05                    1_GWF-(1,26520)
        144          3         44 -9.92357865E-04                    1_GWF-(1,26218) -1.77694729E-05                    1_GWF-(1,26665)
        145          3         45  9.93515783E-04                    1_GWF-(1,26665) -1.64538178E-05                    1_GWF-(1,26392)
        146          3         46  1.02185634E-03                    1_GWF-(1,26666) -1.73385026E-05                    1_GWF-(1,26380)
        147          3         47 -8.54649875E-04                    1_GWF-(1,26137)  1.46333490E-05                    1_GWF-(1,26564)
        148          3         48 -7.43783009E-04                    1_GWF-(1,25816) -1.39293058E-05                    1_GWF-(1,26564)
        149          3         49 -9.05292776E-04                    1_GWF-(1,26467) -1.76505236E-05                    1_GWF-(1,26458)
        150          3         50 -8.56025144E-04                    1_GWF-(1,26465)  1.21885037E-05                    1_GWF-(1,26380)
        151          4          1 -3.08317317E-04                    1_GWF-(1,26522)  6.50175786E-06                    1_GWF-(1,26465)
        152          4          2 -2.64186318E-04                    1_GWF-(1,26515) -6.32242365E-06                    1_GWF-(1,26458)
        153          4          3 -2.34125162E-04                    1_GWF-(1,23876)  8.67037042E-06                    1_GWF-(1,26458)
        154          4          4  3.70348462E-04                    1_GWF-(1,26453)  6.66475514E-06                    1_GWF-(1,26520)
        155          4          5 -2.67958689E-04                    1_GWF-(1,23394) -7.34837094E-06                    1_GWF-(1,26447)
        156          4          6 -3.48707805E-04                    1_GWF-(1,23373)  7.99107509E-06                    1_GWF-(1,26458)
        157          4          7  3.95011358E-04                    1_GWF-(1,26665) -7.29567029E-06                    1_GWF-(1,26458)
        158          4          8 -3.66242540E-04                    1_GWF-(1,23062) -6.74633947E-06                    1_GWF-(1,26516)
        159          4          9 -3.63345506E-04                    1_GWF-(1,23115)  5.47731832E-06                    1_GWF-(1,26622)
        160          4         10 -3.61348477E-04                    1_GWF-(1,18693) -7.10850481E-06                    1_GWF-(1,26665)
        161          4         11 -3.21375929E-04                    1_GWF-(1,18693) -6.51066808E-06                    1_GWF-(1,26623)
        162          4         12  2.52355482E-04                    1_GWF-(1,26623)  5.55860902E-06                    1_GWF-(1,26623)
        163          4         13 -2.44979072E-04                    1_GWF-(1,23409)  3.83655765E-06                    1_GWF-(1,26487)
        164          4         14 -2.42888151E-04                    1_GWF-(1,23417) -4.67454743E-06                    1_GWF-(1,26487)
        165          4         15 -2.32926744E-04                    1_GWF-(1,23502)  4.19089984E-06                    1_GWF-(1,26487)
        166          4         16 -2.27284120E-04                    1_GWF-(1,23469)  4.42625940E-06                    1_GWF-(1,26665)
        167          4         17  1.86807208E-04                    1_GWF-(1,26666) -3.72377574E-06                    1_GWF-(1,26665)
        168          4         18  1.70163569E-04                    1_GWF-(1,26665)  2.67289457E-06                    1_GWF-(1,26665)
        169          4         19 -1.37903051E-04                    1_GWF-(1,23593)  2.40771789E-06                    1_GWF-(1,26218)
        170          4         20  1.14143092E-04                    1_GWF-(1,26649) -3.04177544E-06                    1_GWF-(1,26588)
        171          4         21  1.59881913E-04                    1_GWF-(1,26588)  3.32127253E-06                    1_GWF-(1,26588)
        172          4         22  1.46191602E-04                    1_GWF-(1,26543) -2.91705425E-06                    1_GWF-(1,26622)
        173          4         23 -1.09378766E-04                    1_GWF-(1,24168) -2.39558276E-06                    1_GWF-(1,26218)
        174          4         24 -1.14229183E-04                    1_GWF-(1,24147)  2.18523637E-06                    1_GWF-(1,26649)
        175          4         25 -1.11104232E-04                    1_GWF-(1,24115)  1.56420782E-06                    1_GWF-(1,26346)
        176          4         26 -1.03724393E-04                    1_GWF-(1,24096)  1.49328782E-06                    1_GWF-(1,26625)
        177          4         27 -9.17998271E-05                    1_GWF-(1,24093) -2.01900535E-06                    1_GWF-(1,26588)
        178          4         28  8.74572068E-05                    1_GWF-(1,26588) -1.94807794E-06                    1_GWF-(1,26543)
        179          4         29  7.68198617E-05                    1_GWF-(1,26543)  1.48176590E-06                    1_GWF-(1,26586)
        180          4         30 -6.87904378E-05                    1_GWF-(1,26486) -9.44275871E-07                    1_GWF-(1,26516)
        181          4         31 -4.64801603E-05                    1_GWF-(1,20415)  7.18946549E-07                    1_GWF-(1,26447)
        182          4         32 -3.98501212E-05                    1_GWF-(1,20436)  9.69643501E-07                    1_GWF-(1,26625)
        183          4         33 -4.37338474E-05                    1_GWF-(1,20346) -8.99188394E-07                    1_GWF-(1,26625)
        184          4         34 -4.47638216E-05                    1_GWF-(1,26486) -8.02873157E-07                    1_GWF-(1,26563)
        185          4         35 -4.63864942E-05                    1_GWF-(1,26350)  8.18033003E-07                    1_GWF-(1,26625)
        186          4         36 -4.80965402E-05                    1_GWF-(1,26422) -8.10626911E-07                    1_GWF-(1,26625)
        187          4         37  4.35161998E-05                    1_GWF-(1,26422) -6.55609308E-07                    1_GWF-(1,26350)
        188          4         38  4.10933008E-05                    1_GWF-(1,26350)  5.79234290E-07                    1_GWF-(1,26625)
        189          4         39  3.41339611E-05                    1_GWF-(1,26422) -7.45468710E-07                    1_GWF-(1,26625)
        190          4         40 -2.58208826E-05                    1_GWF-(1,22060) -4.40034163E-07                    1_GWF-(1,26458)
        191          4         41 -2.39606951E-05                    1_GWF-(1,20106)  3.60438482E-07                    1_GWF-(1,26507)
        192          4         42 -1.83454711E-05                    1_GWF-(1,20106) -5.39961414E-07                    1_GWF-(1,26625)
        193          4         43 -1.35365184E-05                    1_GWF-(1,15461)  3.68417632E-07                    1_GWF-(1,26625)
        194          4         44 -1.32071579E-05                    1_GWF-(1,20044)  3.71107211E-07                    1_GWF-(1,26458)
        195          4         45 -1.32805367E-05                    1_GWF-(1,15682) -4.22575418E-07                    1_GWF-(1,26625)
        196          4         46  1.30841851E-05                    1_GWF-(1,20238)  4.97763653E-07                    1_GWF-(1,26625)
        197          4         47  1.13932278E-05                    1_GWF-(1,20239)  3.31104681E-07                    1_GWF-(1,17771)
        198          4         48 -1.06450431E-05                    1_GWF-(1,22402) -2.90399299E-07                    1_GWF-(1,26625)
        199          4         49 -1.51302019E-05                    1_GWF-(1,26648)  4.80149795E-07                    1_GWF-(1,26625)
        200          4         50  1.06048207E-05                    1_GWF-(1,26672)  3.78621815E-07                    1_GWF-(1,17771)
        201          5          1  1.14174965E-05                    1_GWF-(1,26649) -2.33640575E-07                    1_GWF-(1,26543)
        202          5          2  1.14911404E-05                    1_GWF-(1,26648) -2.34030264E-07                    1_GWF-(1,26542)
        203          5          3 -1.14568470E-05                    1_GWF-(1,26486)  3.12988975E-07                    1_GWF-(1,17771)
        204          5          4 -1.29050698E-05                    1_GWF-(1,26487) -3.51096402E-07                    1_GWF-(1,26487)
        205          5          5  1.36219785E-05                    1_GWF-(1,26487)  2.53433778E-07                    1_GWF-(1,26625)
        206          5          6 -1.02431985E-05                    1_GWF-(1,26623)  3.44266437E-07                    1_GWF-(1,17771)
        207          5          7  9.64424593E-06                    1_GWF-(1,20046) -2.09530391E-07                    1_GWF-(1,26552)
        208          5          8 -1.02372579E-05                    1_GWF-(1,26674)  2.36893988E-07                    1_GWF-(1,26625)
        209          5          9  1.00511445E-05                    1_GWF-(1,20787) -3.03201889E-07                    1_GWF-(1,26625)
        210          5         10 -1.78330476E-05                    1_GWF-(1,26649) -3.66969502E-07                    1_GWF-(1,26649)
        211          5         11 -1.83157733E-05                    1_GWF-(1,26622) -3.52247809E-07                    1_GWF-(1,26622)
        212          5         12 -1.41191611E-05                    1_GWF-(1,26649)  3.08361167E-07                    1_GWF-(1,17771)
        213          5         13  1.28774511E-05                    1_GWF-(1,26649)  1.57886491E-07                    1_GWF-(1,26663)
        214          5         14  8.82160720E-06                    1_GWF-(1,19909)  2.88430256E-07                    1_GWF-(1,26625)
        215          5         15  9.55414385E-06                    1_GWF-(1,20253) -2.86650368E-07                    1_GWF-(1,26625)
        216          5         16  1.24716272E-05                    1_GWF-(1,26543) -2.41480848E-07                    1_GWF-(1,26588)
        217          5         17  1.56982875E-05                    1_GWF-(1,26588)  3.11337716E-07                    1_GWF-(1,26588)
        218          5         18 -1.17230056E-05                    1_GWF-(1,26588)  2.18963563E-07                    1_GWF-(1,17771)
        219          5         19 -7.53093590E-06                    1_GWF-(1,26543) -1.37312322E-07                    1_GWF-(1,26543)
        220          5         20 -6.67682790E-06                    1_GWF-(1,26666)  2.42974515E-07                    1_GWF-(1,26625)
        221          5         21 -6.99100580E-06                    1_GWF-(1,26665) -2.11904891E-07                    1_GWF-(1,26625)
        222          5         22 -6.23542649E-06                    1_GWF-(1,26649) -1.52427584E-07                    1_GWF-(1,17771)
        223          5         23 -7.41773669E-06                    1_GWF-(1,26422)  1.70153931E-07                    1_GWF-(1,26625)
        224          5         24  7.69545760E-06                    1_GWF-(1,26422) -2.10463725E-07                    1_GWF-(1,26625)
        225          5         25  6.27755958E-06                    1_GWF-(1,26350) -1.27318908E-07                    1_GWF-(1,17771)
        226          5         26  7.09748852E-06                    1_GWF-(1,26665)  1.40635223E-07                    1_GWF-(1,26625)
        227          5         27  5.97284735E-06                    1_GWF-(1,26663) -1.54528858E-07                    1_GWF-(1,26625)
        228          5         28 -4.77292754E-06                    1_GWF-(1,26666) -8.90935384E-08                    1_GWF-(1,26623)
        229          5         29 -4.70020938E-06                    1_GWF-(1,26665)  9.46722240E-08                    1_GWF-(1,26625)
        230          5         30 -5.10198429E-06                    1_GWF-(1,26422) -9.77500306E-08                    1_GWF-(1,26625)
        231          5         31 -4.10873914E-06                    1_GWF-(1,26350) -5.93156947E-08                    1_GWF-(1,17771)
        232          5         32 -2.53879320E-06                    1_GWF-(1,26649)  6.89799787E-08                    1_GWF-(1,26625)
        233          5         33 -2.53471141E-06                    1_GWF-(1,19918) -7.40697998E-08                    1_GWF-(1,26625)
        234          5         34 -2.55104833E-06                    1_GWF-(1,19929) -4.92086648E-08                    1_GWF-(1,17771)
        235          5         35 -2.62057962E-06                    1_GWF-(1,19967)  4.05727876E-08                    1_GWF-(1,26218)
        236          5         36 -1.98248924E-06                    1_GWF-(1,19945) -4.91473595E-08                    1_GWF-(1,26625)
        237          5         37 -1.69200999E-06                    1_GWF-(1,26217)  3.21846698E-08                    1_GWF-(1,26218)
        238          5         38 -1.34114281E-06                    1_GWF-(1,26218) -3.92361536E-08                    1_GWF-(1,26218)
        239          5         39  1.46819984E-06                    1_GWF-(1,26218)  3.65945030E-08                    1_GWF-(1,26218)
        240          5         40  1.23482067E-06                    1_GWF-(1,26622) -3.32897861E-08                    1_GWF-(1,26623)
        241          5         41  1.57299652E-06                    1_GWF-(1,26649)  3.84367683E-08                    1_GWF-(1,26649)
        242          5         42 -1.73708095E-06                    1_GWF-(1,26649)  3.76685194E-08                    1_GWF-(1,26622)
        243          5         43 -1.61034456E-06                    1_GWF-(1,26622) -2.25369681E-08                    1_GWF-(1,26218)
        244          5         44 -9.77845638E-07                    1_GWF-(1,26649) -2.02606451E-08                    1_GWF-(1,26346)
        245          6          1  9.11504455E-07                    1_GWF-(1,26217) -2.07566509E-08                    1_GWF-(1,26218)
 --------------------------------------------------------------------------------------------------------------------------------------



 MEMORY MANAGER TOTAL STORAGE BY DATA TYPE, IN MEGABYTES
 -------------------------------
                    ALLOCATED   
 DATA TYPE           MEMORY     
 -------------------------------
 Character        4.66090000E-02
 Logical          4.40000000E-05
 Integer          5.2037920     
 Real             11.901376     
 -------------------------------
 Total            17.151821     
 -------------------------------


 
 Run end date and time (yyyy/mm/dd hh:mm:ss): 2022/03/31  7:24:09
 Elapsed run time:  0.455 Seconds
 Normal termination of simulation.
