                                   MODFLOW 6
                U.S. GEOLOGICAL SURVEY MODULAR HYDROLOGIC MODEL
                            VERSION 6.2.2 07/30/2021

   MODFLOW 6 compiled Jul 31 2021 14:22:53 with IFORT compiler (ver. 19.10.3)

This software has been approved for release by the U.S. Geological 
Survey (USGS). Although the software has been subjected to rigorous 
review, the USGS reserves the right to update the software as needed 
pursuant to further analysis and review. No warranty, expressed or 
implied, is made by the USGS or the U.S. Government as to the 
functionality of the software and related material nor shall the 
fact of release constitute any such warranty. Furthermore, the 
software is released on condition that neither the USGS nor the U.S. 
Government shall be held liable for any damages resulting from its 
authorized or unauthorized use. Also refer to the USGS Water 
Resources Software User Rights Notice for complete use, copyright, 
and distribution information.


System command used to initiate simulation:
mf6

MODFLOW was compiled using uniform precision.

Real Variables
  KIND: 8
  TINY (smallest non-zero value):    2.225074-308
  HUGE (largest value):    1.797693+308
  PRECISION: 15
  BIT SIZE: 64

Integer Variables
  KIND: 4
  HUGE (largest value): 2147483647
  BIT SIZE: 32

Long Integer Variables
  KIND: 8
  HUGE (largest value): 9223372036854775807
  BIT SIZE: 64

Logical Variables
  KIND: 4
  BIT SIZE: 32
 

 OPENED mfsim.nam
 FILE TYPE:NAM   UNIT 1001   STATUS:OLD                 
 FORMAT:FORMATTED              ACCESS:SEQUENTIAL          
 ACTION:READ                

 # File generated by Flopy version 3.3.5 on 03/24/2022 at 18:05:06.

 READING SIMULATION OPTIONS
 END OF SIMULATION OPTIONS

 READING SIMULATION TIMING

 OPENED mfsim.tdis
 FILE TYPE:TDIS   UNIT 1002   STATUS:OLD                 
 FORMAT:FORMATTED              ACCESS:SEQUENTIAL          
 ACTION:READ                


 TDIS -- TEMPORAL DISCRETIZATION PACKAGE,
 VERSION 1 : 11/13/2014 - INPUT READ FROM UNIT 1002
 # File generated by Flopy version 3.3.5 on 03/24/2022 at 18:05:06.
 PROCESSING TDIS OPTIONS
    SIMULATION TIME UNIT IS SECONDS
 END OF TDIS OPTIONS
 PROCESSING TDIS DIMENSIONS
    1 STRESS PERIOD(S) IN SIMULATION
 END OF TDIS DIMENSIONS
 PROCESSING TDIS PERIODDATA


 STRESS PERIOD     LENGTH       TIME STEPS     MULTIPLIER FOR DELT
 ----------------------------------------------------------------------------
        1         2.000000          1                    1.000
 END OF TDIS PERIODDATA
 END OF SIMULATION TIMING

 READING SIMULATION MODELS
    GWF6 model ML will be created as model 1
 END OF SIMULATION MODELS

 READING SIMULATION EXCHANGES
 END OF SIMULATION EXCHANGES

 READING SOLUTIONGROUP

 Creating solution: SLN_1           

 OPENED mfsim.ims
 FILE TYPE:IMS   UNIT 1015   STATUS:OLD                 
 FORMAT:FORMATTED              ACCESS:SEQUENTIAL          
 ACTION:READ                

 END OF SIMULATION SOLUTIONGROUP

 IMS -- ITERATIVE MODEL SOLUTION PACKAGE, VERSION 6, 4/28/2017
         INPUT READ FROM UNIT 1015
 # File generated by Flopy version 3.3.5 on 03/24/2022 at 18:05:06.

 PROCESSING IMS OPTIONS
 END OF IMS OPTIONS

 PROCESSING IMS NONLINEAR
 END OF IMS NONLINEAR DATA
 ***UNDER-RELAXATION WILL NOT BE USED***
 
 ***IMS LINEAR SOLVER WILL BE USED***

 IMSLINEAR -- UNSTRUCTURED LINEAR SOLUTION PACKAGE, VERSION 8, 04/28/2017

 PROCESSING LINEAR DATA
 END OF LINEAR DATA
 
 OUTER ITERATION CONVERGENCE CRITERION    (DVCLOSE) =    0.100000E-04
 MAXIMUM NUMBER OF OUTER ITERATIONS        (MXITER) = 100
 SOLVER PRINTOUT INDEX                     (IPRIMS) = 2
 NONLINEAR ITERATION METHOD            (NONLINMETH) = 0
 LINEAR SOLUTION METHOD                   (LINMETH) = 1

       SOLUTION BY THE        CONJUGATE-GRADIENT       METHOD
 ------------------------------------------------------------------
 MAXIMUM OF 100 CALLS OF SOLUTION ROUTINE
 MAXIMUM OF 50 INTERNAL ITERATIONS PER CALL TO SOLUTION ROUTINE
 LINEAR ACCELERATION METHOD            = CG        
 MATRIX PRECONDITIONING TYPE           = INCOMPLETE LU       
 MATRIX SCALING APPROACH               = NO SCALING          
 MATRIX REORDERING APPROACH            = ORIGINAL ORDERING        
 NUMBER OF ORTHOGONALIZATIONS          = 0
 HEAD CHANGE CRITERION FOR CLOSURE     =    0.10000E-05
 RESIDUAL CHANGE CRITERION FOR CLOSURE =    0.10000E-04
 RESIDUAL CONVERGENCE OPTION           = 1
 RESIDUAL CONVERGENCE NORM             = INFINITY NORM S 
 RELAXATION FACTOR                     =    0.00000E+00



 
    Solving:  Stress period:     1    Time step:     1
 
1
                            STRESS PERIOD NO. 1, LENGTH =   2.000000    
                            -----------------------------------------------
                            NUMBER OF TIME STEPS = 1
                            MULTIPLIER FOR DELT =     1.000
                            INITIAL TIME STEP SIZE =   2.000000    

 SLN_1 OUTER ITERATION SUMMARY
 ----------------------------------------------------------------------------------------------------------
                                OUTER      INNER                    STEP   MAXIMUM CHANGE MODEL-(CELLID) OR
 OUTER ITERATION STEP       ITERATION  ITERATION  MAXIMUM CHANGE SUCCESS             MODEL-PACKAGE-(NUMBER)
 ----------------------------------------------------------------------------------------------------------
 Model                              1         50      -12.950450                            1_GWF-(1,11882)
 Model                              2         50      -6.6336345                            1_GWF-(1,19394)
 Model                              3         50     -0.25401070                            1_GWF-(1,19624)
 Model                              4         50 -6.03965453E-03                            1_GWF-(1,18118)
 Model                              5         50 -1.11865366E-04                            1_GWF-(1,17978)
 Model                              6          8 -3.85960362E-06                            1_GWF-(1,18125)
 Model                              7          1  7.92641540E-07       *                    1_GWF-(1,19660)
 ----------------------------------------------------------------------------------------------------------


 7 CALLS TO NUMERICAL SOLUTION IN TIME STEP 1 STRESS PERIOD 1
 259 TOTAL ITERATIONS

 SLN_1 INNER ITERATION SUMMARY
 --------------------------------------------------------------------------------------------------------------------------------------
      TOTAL      OUTER      INNER                                                            MAXIMUM                                   
  ITERATION  ITERATION  ITERATION  MAXIMUM CHANGE      MAXIMUM CHANGE MODEL-(CELLID)        RESIDUAL    MAXIMUM RESIDUAL MODEL-(CELLID)
 --------------------------------------------------------------------------------------------------------------------------------------
          1          1          1      -12.648722                    1_GWF-(1,11882)      0.32059345                     1_GWF-(1,1848)
          2          1          2      -7.0417365                    1_GWF-(1,11876)      0.15902333                    1_GWF-(1,13443)
          3          1          3       4.5718739                    1_GWF-(1,19569)      0.12360906                    1_GWF-(1,13437)
          4          1          4      -3.7894335                    1_GWF-(1,11830)      0.10983269                      1_GWF-(1,846)
          5          1          5       3.1526590                    1_GWF-(1,19532) -8.76669159E-02                     1_GWF-(1,1848)
          6          1          6      -3.4493736                    1_GWF-(1,19435) -5.30277053E-02                     1_GWF-(1,6716)
          7          1          7       3.7825116                    1_GWF-(1,19676)  5.98011207E-02                    1_GWF-(1,11869)
          8          1          8       4.9015171                    1_GWF-(1,19678)  6.75886228E-02                    1_GWF-(1,19678)
          9          1          9       4.4386913                    1_GWF-(1,19679) -7.36024591E-02                    1_GWF-(1,19678)
         10          1         10       4.6188439                    1_GWF-(1,19678)  7.56801591E-02                    1_GWF-(1,11869)
         11          1         11      -3.3360932                    1_GWF-(1,19678) -4.60490473E-02                     1_GWF-(1,1848)
         12          1         12      -3.6038387                    1_GWF-(1,19635)  5.44481996E-02                    1_GWF-(1,19662)
         13          1         13      -3.9958179                    1_GWF-(1,19662) -5.50169187E-02                    1_GWF-(1,19662)
         14          1         14      -2.9681472                    1_GWF-(1,19635) -4.31957979E-02                    1_GWF-(1,19635)
         15          1         15      -2.3458878                    1_GWF-(1,19636) -3.93423165E-02                    1_GWF-(1,11869)
         16          1         16      -1.7711336                    1_GWF-(1,19635)  3.58640972E-02                    1_GWF-(1,11865)
         17          1         17      -1.5240406                    1_GWF-(1,19636)  2.74470623E-02                    1_GWF-(1,13443)
         18          1         18      -1.7154327                    1_GWF-(1,19556)  3.24019377E-02                    1_GWF-(1,19601)
         19          1         19      -1.9346188                    1_GWF-(1,19601) -2.84047672E-02                    1_GWF-(1,19601)
         20          1         20      -1.2996911                    1_GWF-(1,19556) -1.99343533E-02                    1_GWF-(1,19556)
         21          1         21     -0.96774556                    1_GWF-(1,19557) -1.66066881E-02                    1_GWF-(1,11865)
         22          1         22     -0.96133977                    1_GWF-(1,19499) -1.30981620E-02                    1_GWF-(1,19499)
         23          1         23     -0.94152608                    1_GWF-(1,19500) -1.58349708E-02                    1_GWF-(1,19500)
         24          1         24      0.81599957                    1_GWF-(1,19500) -1.55824427E-02                    1_GWF-(1,19499)
         25          1         25      0.94165187                    1_GWF-(1,19433) -1.36955039E-02                    1_GWF-(1,19500)
         26          1         26      0.87876689                    1_GWF-(1,19500)  9.15030322E-03                    1_GWF-(1,19500)
         27          1         27      0.58353312                    1_GWF-(1,19433) -9.68777326E-03                     1_GWF-(1,6704)
         28          1         28      0.44196600                    1_GWF-(1,19435)  9.03868206E-03                     1_GWF-(1,6704)
         29          1         29      0.40018579                    1_GWF-(1,19433) -5.64080980E-03                    1_GWF-(1,11877)
         30          1         30      0.43056784                    1_GWF-(1,19435) -1.08348879E-02                     1_GWF-(1,6704)
         31          1         31      0.49208335                    1_GWF-(1,19363)  1.42013739E-02                     1_GWF-(1,6705)
         32          1         32     -0.59766814                    1_GWF-(1,19363) -8.52120114E-03                    1_GWF-(1,13632)
         33          1         33     -0.81025214                    1_GWF-(1,19435) -1.29778672E-02                     1_GWF-(1,6705)
         34          1         34     -0.76838838                    1_GWF-(1,19363)  1.66497405E-02                     1_GWF-(1,6705)
         35          1         35     -0.70298373                    1_GWF-(1,19499)  6.17506542E-03                    1_GWF-(1,11875)
         36          1         36     -0.46110509                    1_GWF-(1,19557)  9.51890240E-03                     1_GWF-(1,6716)
         37          1         37     -0.37889858                    1_GWF-(1,19435)  1.49832544E-02                     1_GWF-(1,6705)
         38          1         38     -0.32660206                     1_GWF-(1,3812) -8.96768382E-03                     1_GWF-(1,6705)
         39          1         39      0.30607049                    1_GWF-(1,17869)  9.16280125E-03                     1_GWF-(1,6716)
         40          1         40      0.29065226                    1_GWF-(1,17868)  1.13457063E-02                    1_GWF-(1,13440)
         41          1         41      0.31134236                    1_GWF-(1,19556)  1.21750586E-02                    1_GWF-(1,13437)
         42          1         42      0.25019394                    1_GWF-(1,19599) -9.35554776E-03                    1_GWF-(1,13437)
         43          1         43      0.21336992                    1_GWF-(1,17487)  1.05098196E-02                    1_GWF-(1,13443)
         44          1         44      0.20578891                    1_GWF-(1,19435)  8.49395129E-03                    1_GWF-(1,13442)
         45          1         45      0.25190740                    1_GWF-(1,19285)  1.00306129E-02                    1_GWF-(1,13443)
         46          1         46      0.24193794                    1_GWF-(1,19284) -8.30876036E-03                    1_GWF-(1,13443)
         47          1         47      0.15255706                    1_GWF-(1,19285)  9.69724179E-03                    1_GWF-(1,13443)
         48          1         48     -0.21671657                    1_GWF-(1,19285) -6.49056669E-03                    1_GWF-(1,13443)
         49          1         49     -0.23917179                    1_GWF-(1,19284)  5.28224001E-03                    1_GWF-(1,13443)
         50          1         50     -0.25906064                    1_GWF-(1,19285) -5.13847961E-03                    1_GWF-(1,13443)
         51          2          1      -6.6368977                    1_GWF-(1,19394)     -0.11248158                    1_GWF-(1,19394)
         52          2          2      -3.2329232                    1_GWF-(1,19466)  3.99175474E-02                    1_GWF-(1,19394)
         53          2          3      -1.1465266                    1_GWF-(1,19388)  2.05584226E-02                    1_GWF-(1,19393)
         54          2          4      -1.1327341                    1_GWF-(1,19384) -1.52592975E-02                    1_GWF-(1,19393)
         55          2          5     -0.78773254                    1_GWF-(1,19661) -8.15773761E-03                    1_GWF-(1,19460)
         56          2          6     -0.72985124                    1_GWF-(1,19635) -8.53163851E-03                    1_GWF-(1,19458)
         57          2          7     -0.56695058                    1_GWF-(1,19602) -4.96296579E-03                    1_GWF-(1,19393)
         58          2          8     -0.55305505                    1_GWF-(1,19556)  6.64589111E-03                    1_GWF-(1,19393)
         59          2          9     -0.51222070                    1_GWF-(1,19557)  4.58140318E-03                    1_GWF-(1,19285)
         60          2         10     -0.40649015                    1_GWF-(1,19285)  3.08915360E-03                    1_GWF-(1,19359)
         61          2         11     -0.36147965                    1_GWF-(1,19435)  3.36894539E-03                    1_GWF-(1,19515)
         62          2         12     -0.32476419                    1_GWF-(1,19285) -2.69457957E-03                    1_GWF-(1,19678)
         63          2         13      0.17394387                    1_GWF-(1,19678)  2.10979275E-03                    1_GWF-(1,19678)
         64          2         14      0.12171021                    1_GWF-(1,19661)  2.06384037E-03                    1_GWF-(1,19515)
         65          2         15      0.14640688                    1_GWF-(1,19662)  2.22054085E-03                    1_GWF-(1,19516)
         66          2         16      0.14048073                    1_GWF-(1,19635)  2.69373141E-03                    1_GWF-(1,19635)
         67          2         17      0.18069669                    1_GWF-(1,19170) -2.51601627E-03                    1_GWF-(1,19635)
         68          2         18      0.15462207                    1_GWF-(1,19678) -2.20432487E-03                    1_GWF-(1,19636)
         69          2         19      0.15467678                    1_GWF-(1,19285)  1.35910924E-03                    1_GWF-(1,19561)
         70          2         20      0.10629744                    1_GWF-(1,19284)  1.00035100E-03                    1_GWF-(1,19518)
         71          2         21  8.73432200E-02                    1_GWF-(1,19601)  1.29438243E-03                    1_GWF-(1,19601)
         72          2         22  8.50041109E-02                    1_GWF-(1,19556)  1.57703683E-03                    1_GWF-(1,19556)
         73          2         23 -7.59291766E-02                    1_GWF-(1,19556) -1.17168627E-03                    1_GWF-(1,19556)
         74          2         24 -8.08567194E-02                    1_GWF-(1,19500)  9.51270134E-04                    1_GWF-(1,19499)
         75          2         25     -0.10639250                    1_GWF-(1,19499)  1.21964155E-03                    1_GWF-(1,19561)
         76          2         26 -6.96307718E-02                    1_GWF-(1,19500) -9.21129097E-04                    1_GWF-(1,19500)
         77          2         27  5.27318956E-02                    1_GWF-(1,19500)  1.08053400E-03                    1_GWF-(1,19500)
         78          2         28  5.12128283E-02                    1_GWF-(1,19433)  9.34219554E-04                    1_GWF-(1,19433)
         79          2         29 -4.82293050E-02                    1_GWF-(1,19433) -7.72418839E-04                    1_GWF-(1,19515)
         80          2         30 -4.27439007E-02                    1_GWF-(1,19500) -1.04931870E-03                    1_GWF-(1,13442)
         81          2         31 -3.91343985E-02                    1_GWF-(1,19137) -1.97060026E-03                    1_GWF-(1,13443)
         82          2         32 -3.30353848E-02                    1_GWF-(1,18890)  1.53533757E-03                    1_GWF-(1,13443)
         83          2         33 -2.86464241E-02                    1_GWF-(1,18867) -2.25097769E-03                    1_GWF-(1,13443)
         84          2         34 -2.55347025E-02                     1_GWF-(1,2574)  2.54941467E-03                    1_GWF-(1,13443)
         85          2         35  3.68300970E-02                    1_GWF-(1,19677) -2.83536214E-03                    1_GWF-(1,13443)
         86          2         36 -3.39014556E-02                     1_GWF-(1,2559)  3.05858504E-03                    1_GWF-(1,13443)
         87          2         37  3.66828245E-02                    1_GWF-(1,19636) -3.03884958E-03                    1_GWF-(1,13443)
         88          2         38 -2.59455370E-02                     1_GWF-(1,2470)  2.91064469E-03                    1_GWF-(1,13443)
         89          2         39  2.26757533E-02                    1_GWF-(1,19363) -2.23409008E-03                    1_GWF-(1,13443)
         90          2         40 -2.75609533E-02                    1_GWF-(1,19636)  1.81738151E-03                    1_GWF-(1,13443)
         91          2         41 -2.77341466E-02                    1_GWF-(1,19678) -9.78967230E-04                    1_GWF-(1,13443)
         92          2         42 -2.04844476E-02                    1_GWF-(1,19661) -4.00239216E-04                    1_GWF-(1,19560)
         93          2         43 -1.91565043E-02                    1_GWF-(1,19635)  3.22651915E-04                    1_GWF-(1,19562)
         94          2         44 -1.32539587E-02                    1_GWF-(1,19363) -6.74817954E-04                    1_GWF-(1,13443)
         95          2         45 -2.03519944E-02                    1_GWF-(1,19435)  8.98818563E-04                    1_GWF-(1,13443)
         96          2         46 -2.06134994E-02                    1_GWF-(1,19363) -1.22367805E-03                    1_GWF-(1,13443)
         97          2         47 -2.04364228E-02                    1_GWF-(1,19435)  1.33855605E-03                    1_GWF-(1,13443)
         98          2         48 -1.59894120E-02                    1_GWF-(1,19363) -1.00430040E-03                    1_GWF-(1,13443)
         99          2         49  1.54677299E-02                    1_GWF-(1,19363)  8.02311592E-04                    1_GWF-(1,13443)
        100          2         50  1.75215875E-02                    1_GWF-(1,19499)  3.08870564E-04                    1_GWF-(1,13442)
        101          3          1     -0.14599036                    1_GWF-(1,19586) -1.18752018E-03                    1_GWF-(1,19624)
        102          3          2 -8.49300458E-02                    1_GWF-(1,19585) -8.18459990E-04                    1_GWF-(1,19623)
        103          3          3 -6.17729921E-02                    1_GWF-(1,19650)  5.93534320E-04                    1_GWF-(1,19623)
        104          3          4 -6.83489000E-02                    1_GWF-(1,19662)  4.00262225E-04                    1_GWF-(1,19650)
        105          3          5 -3.86547904E-02                    1_GWF-(1,19636) -2.41964486E-04                    1_GWF-(1,19587)
        106          3          6 -4.15563095E-02                    1_GWF-(1,19602)  3.04221477E-04                    1_GWF-(1,19623)
        107          3          7 -4.88347317E-02                    1_GWF-(1,19601)  3.80108580E-04                    1_GWF-(1,19650)
        108          3          8 -4.60257720E-02                    1_GWF-(1,19557) -3.61691366E-04                    1_GWF-(1,19650)
        109          3          9 -3.30805942E-02                    1_GWF-(1,19499) -3.40746731E-04                    1_GWF-(1,19649)
        110          3         10 -3.11507982E-02                    1_GWF-(1,19363)  4.15648276E-04                    1_GWF-(1,19667)
        111          3         11 -2.56982108E-02                    1_GWF-(1,19362)  2.90135193E-04                    1_GWF-(1,19678)
        112          3         12 -2.00992207E-02                    1_GWF-(1,19678)  2.94879013E-04                    1_GWF-(1,19635)
        113          3         13 -1.31268252E-02                    1_GWF-(1,19635)  2.16075370E-04                    1_GWF-(1,19667)
        114          3         14  1.68780166E-02                    1_GWF-(1,19363) -2.45702960E-04                    1_GWF-(1,19668)
        115          3         15  2.31227382E-02                    1_GWF-(1,19284) -2.75009794E-04                    1_GWF-(1,19667)
        116          3         16  1.89302628E-02                    1_GWF-(1,19177)  1.92146300E-04                    1_GWF-(1,19667)
        117          3         17  1.06791545E-02                    1_GWF-(1,19363) -1.19418979E-04                    1_GWF-(1,19668)
        118          3         18  1.02000083E-02                    1_GWF-(1,19435) -1.31592760E-04                    1_GWF-(1,19667)
        119          3         19  4.94675549E-03                    1_GWF-(1,19363)  9.52089728E-05                    1_GWF-(1,19667)
        120          3         20  4.81359650E-03                    1_GWF-(1,19499) -9.49243924E-05                    1_GWF-(1,19668)
        121          3         21 -4.13906740E-03                    1_GWF-(1,19662) -1.05117678E-04                    1_GWF-(1,19667)
        122          3         22 -4.77351432E-03                    1_GWF-(1,19635)  7.62865494E-05                    1_GWF-(1,19667)
        123          3         23 -6.22468297E-03                    1_GWF-(1,19499)  6.22195613E-05                    1_GWF-(1,19500)
        124          3         24 -6.38102065E-03                    1_GWF-(1,19500) -8.31607690E-05                    1_GWF-(1,19667)
        125          3         25 -5.81145284E-03                    1_GWF-(1,19433) -6.71353774E-05                    1_GWF-(1,19433)
        126          3         26 -4.15621999E-03                    1_GWF-(1,19557) -5.37301322E-05                    1_GWF-(1,19500)
        127          3         27 -3.93023881E-03                    1_GWF-(1,19499) -5.93156607E-05                    1_GWF-(1,19667)
        128          3         28 -3.34627040E-03                    1_GWF-(1,19500)  5.10831985E-05                    1_GWF-(1,13443)
        129          3         29 -2.93089711E-03                    1_GWF-(1,19635)  3.92252926E-05                    1_GWF-(1,13442)
        130          3         30 -2.42875820E-03                    1_GWF-(1,19660)  5.77104518E-05                    1_GWF-(1,13443)
        131          3         31 -3.23919264E-03                    1_GWF-(1,19676) -3.59959840E-05                    1_GWF-(1,19664)
        132          3         32 -2.44183509E-03                    1_GWF-(1,19687) -3.72862907E-05                    1_GWF-(1,19677)
        133          3         33  2.12596769E-03                    1_GWF-(1,19284) -4.65585123E-05                    1_GWF-(1,19667)
        134          3         34  3.04467892E-03                    1_GWF-(1,19601) -4.94290769E-05                    1_GWF-(1,19650)
        135          3         35  2.73096144E-03                    1_GWF-(1,19363)  4.78434168E-05                    1_GWF-(1,19664)
        136          3         36  2.28879328E-03                    1_GWF-(1,19499) -7.08084277E-05                    1_GWF-(1,13443)
        137          3         37  2.13916963E-03                    1_GWF-(1,19661) -5.89294082E-05                    1_GWF-(1,13442)
        138          3         38  1.72037880E-03                    1_GWF-(1,18759) -9.36793557E-05                    1_GWF-(1,13443)
        139          3         39  1.82772029E-03                    1_GWF-(1,18753) -7.98575126E-05                    1_GWF-(1,13442)
        140          3         40 -1.50431570E-03                    1_GWF-(1,19661) -1.03216630E-04                    1_GWF-(1,13443)
        141          3         41 -1.01858437E-03                    1_GWF-(1,19585)  8.04810118E-05                    1_GWF-(1,13443)
        142          3         42 -9.84494585E-04                    1_GWF-(1,19543) -1.02328904E-04                    1_GWF-(1,13443)
        143          3         43 -1.68443988E-03                    1_GWF-(1,19284)  9.69780134E-05                    1_GWF-(1,13443)
        144          3         44 -1.38695868E-03                    1_GWF-(1,19285) -1.13298792E-04                    1_GWF-(1,13443)
        145          3         45  1.10528035E-03                    1_GWF-(1,19285)  1.03655168E-04                    1_GWF-(1,13443)
        146          3         46  1.06317112E-03                    1_GWF-(1,19284) -8.12125283E-05                    1_GWF-(1,13443)
        147          3         47 -1.16684463E-03                    1_GWF-(1,19284)  6.72817662E-05                    1_GWF-(1,13443)
        148          3         48 -1.32215059E-03                    1_GWF-(1,19285) -3.86400477E-05                    1_GWF-(1,13443)
        149          3         49 -8.79588109E-04                    1_GWF-(1,19284)  1.66469012E-05                    1_GWF-(1,13443)
        150          3         50 -5.97140289E-04                    1_GWF-(1,19285) -1.53386731E-05                    1_GWF-(1,19263)
        151          4          1 -3.01717929E-03                    1_GWF-(1,18118) -6.04487883E-05                    1_GWF-(1,18118)
        152          4          2 -1.57357564E-03                    1_GWF-(1,18121) -5.27421909E-05                    1_GWF-(1,18117)
        153          4          3 -1.06080485E-03                    1_GWF-(1,18299)  3.12925923E-05                    1_GWF-(1,18117)
        154          4          4 -9.22972159E-04                    1_GWF-(1,18258)  2.97693570E-05                    1_GWF-(1,18106)
        155          4          5 -8.73729327E-04                    1_GWF-(1,18260) -2.85418800E-05                    1_GWF-(1,18121)
        156          4          6 -7.95496957E-04                    1_GWF-(1,18245)  2.91448623E-05                    1_GWF-(1,18117)
        157          4          7  7.77763306E-04                    1_GWF-(1,19285)  2.86823994E-05                    1_GWF-(1,18122)
        158          4          8  7.25504150E-04                    1_GWF-(1,19284) -2.52216180E-05                    1_GWF-(1,18106)
        159          4          9 -5.18920081E-04                    1_GWF-(1,19284) -2.14892791E-05                    1_GWF-(1,18105)
        160          4         10 -5.09080092E-04                    1_GWF-(1,19285) -1.62376072E-05                    1_GWF-(1,18299)
        161          4         11 -5.98328158E-04                    1_GWF-(1,19500) -1.39210266E-05                    1_GWF-(1,18106)
        162          4         12 -6.03692173E-04                    1_GWF-(1,19499) -1.30540694E-05                    1_GWF-(1,18105)
        163          4         13 -4.55708223E-04                    1_GWF-(1,19601) -1.37766657E-05                    1_GWF-(1,18102)
        164          4         14 -3.26108195E-04                    1_GWF-(1,19635) -1.07105157E-05                    1_GWF-(1,18256)
        165          4         15 -2.87660571E-04                    1_GWF-(1,19662) -1.22920588E-05                    1_GWF-(1,18257)
        166          4         16 -2.14002508E-04                     1_GWF-(1,1249) -1.19657562E-05                    1_GWF-(1,18258)
        167          4         17 -1.85874523E-04                    1_GWF-(1,19636)  1.00892464E-05                    1_GWF-(1,18102)
        168          4         18 -1.94968125E-04                    1_GWF-(1,19635)  7.74154487E-06                    1_GWF-(1,18101)
        169          4         19  2.17090756E-04                    1_GWF-(1,19635)  4.39531693E-06                    1_GWF-(1,19635)
        170          4         20 -2.06868101E-04                    1_GWF-(1,19635)  4.02481718E-06                    1_GWF-(1,18102)
        171          4         21 -1.42872241E-04                    1_GWF-(1,19662)  5.59371174E-06                    1_GWF-(1,18101)
        172          4         22 -1.12310899E-04                    1_GWF-(1,17579)  5.14353617E-06                    1_GWF-(1,18058)
        173          4         23  1.02817480E-04                    1_GWF-(1,19661) -4.53964178E-06                    1_GWF-(1,18058)
        174          4         24  1.10574694E-04                    1_GWF-(1,19662) -3.90165330E-06                    1_GWF-(1,18266)
        175          4         25  9.78679379E-05                    1_GWF-(1,19601) -2.91075426E-06                    1_GWF-(1,18056)
        176          4         26  1.37346901E-04                    1_GWF-(1,19556) -3.14395548E-06                    1_GWF-(1,18058)
        177          4         27  1.94032118E-04                    1_GWF-(1,19601) -3.03102406E-06                    1_GWF-(1,18057)
        178          4         28  1.70180946E-04                    1_GWF-(1,19556) -2.79807176E-06                    1_GWF-(1,18267)
        179          4         29  1.44383771E-04                    1_GWF-(1,19601) -3.09933436E-06                    1_GWF-(1,18051)
        180          4         30 -1.20997021E-04                    1_GWF-(1,19601) -3.12804272E-06                    1_GWF-(1,18057)
        181          4         31  9.38773204E-05                    1_GWF-(1,16363) -2.93995931E-06                    1_GWF-(1,18054)
        182          4         32  9.36992026E-05                    1_GWF-(1,16399)  3.45875401E-06                    1_GWF-(1,13443)
        183          4         33 -9.65702558E-05                    1_GWF-(1,19363)  2.85615833E-06                    1_GWF-(1,18051)
        184          4         34 -1.17347313E-04                    1_GWF-(1,19435)  2.47525644E-06                    1_GWF-(1,18052)
        185          4         35 -7.62028392E-05                    1_GWF-(1,19685) -2.38363161E-06                    1_GWF-(1,18052)
        186          4         36 -7.40768793E-05                    1_GWF-(1,19284) -2.15494196E-06                    1_GWF-(1,18257)
        187          4         37 -6.56789012E-05                    1_GWF-(1,19363) -2.10610677E-06                    1_GWF-(1,18053)
        188          4         38 -7.72615001E-05                    1_GWF-(1,19678) -2.18176423E-06                    1_GWF-(1,18042)
        189          4         39  7.89938469E-05                    1_GWF-(1,19678)  1.51845356E-06                    1_GWF-(1,18042)
        190          4         40 -9.27449396E-05                    1_GWF-(1,19635) -1.43993617E-06                    1_GWF-(1,13443)
        191          4         41  7.97913488E-05                    1_GWF-(1,19678) -1.29491407E-06                    1_GWF-(1,18108)
        192          4         42 -8.14827903E-05                    1_GWF-(1,19678)  1.29878119E-06                    1_GWF-(1,19676)
        193          4         43 -8.53640286E-05                    1_GWF-(1,19676)  1.24373195E-06                    1_GWF-(1,18041)
        194          4         44 -6.73702332E-05                    1_GWF-(1,19687)  1.02838014E-06                    1_GWF-(1,18038)
        195          4         45  5.89849435E-05                    1_GWF-(1,19601)  9.73492055E-07                    1_GWF-(1,18108)
        196          4         46  5.85099440E-05                    1_GWF-(1,19435)  1.19994698E-06                    1_GWF-(1,18103)
        197          4         47  6.15535981E-05                    1_GWF-(1,19363) -1.03566299E-06                    1_GWF-(1,13443)
        198          4         48  6.61827267E-05                    1_GWF-(1,19435) -7.02634534E-07                    1_GWF-(1,19363)
        199          4         49  5.09667765E-05                    1_GWF-(1,19363)  6.45953580E-07                    1_GWF-(1,18103)
        200          4         50 -3.32711862E-05                    1_GWF-(1,19557)  6.53924794E-07                    1_GWF-(1,19624)
        201          5          1 -2.93407803E-05                    1_GWF-(1,19435)  5.22462093E-07                    1_GWF-(1,19662)
        202          5          2 -3.92878812E-05                    1_GWF-(1,19662) -5.31271381E-07                    1_GWF-(1,19662)
        203          5          3 -4.37125664E-05                    1_GWF-(1,19661)  6.33855403E-07                    1_GWF-(1,19662)
        204          5          4 -5.09372271E-05                    1_GWF-(1,19662)  6.00583957E-07                    1_GWF-(1,19635)
        205          5          5 -4.66571203E-05                    1_GWF-(1,19635)  4.79176647E-07                    1_GWF-(1,19636)
        206          5          6 -4.41051531E-05                    1_GWF-(1,19601) -4.11472157E-07                    1_GWF-(1,19636)
        207          5          7 -3.09418236E-05                    1_GWF-(1,19433) -3.59806264E-07                    1_GWF-(1,19363)
        208          5          8 -2.76529497E-05                    1_GWF-(1,19435)  3.83806079E-07                    1_GWF-(1,18299)
        209          5          9 -2.31755513E-05                    1_GWF-(1,19433)  3.72721271E-07                    1_GWF-(1,13891)
        210          5         10 -1.76603284E-05                    1_GWF-(1,19435) -3.56767435E-07                    1_GWF-(1,19500)
        211          5         11  2.68381629E-05                    1_GWF-(1,19500) -3.90644140E-07                    1_GWF-(1,19499)
        212          5         12  3.36990472E-05                    1_GWF-(1,19499)  4.43548107E-07                    1_GWF-(1,19499)
        213          5         13  2.67081311E-05                    1_GWF-(1,19500) -3.16354303E-07                    1_GWF-(1,19499)
        214          5         14  2.12071046E-05                    1_GWF-(1,19499)  2.82450262E-07                    1_GWF-(1,13891)
        215          5         15  1.54680398E-05                    1_GWF-(1,19557) -2.38211343E-07                    1_GWF-(1,13443)
        216          5         16  1.09017336E-05                    1_GWF-(1,19499)  1.87095660E-07                    1_GWF-(1,18257)
        217          5         17  9.90052075E-06                    1_GWF-(1,19678)  1.61789092E-07                    1_GWF-(1,18055)
        218          5         18  1.12119065E-05                    1_GWF-(1,19679) -1.46181288E-07                    1_GWF-(1,19635)
        219          5         19  9.46434838E-06                    1_GWF-(1,19678)  1.87742384E-07                    1_GWF-(1,13443)
        220          5         20 -9.28143167E-06                    1_GWF-(1,19678)  1.62277614E-07                    1_GWF-(1,18052)
        221          5         21 -8.89587765E-06                    1_GWF-(1,19363) -1.41716910E-07                    1_GWF-(1,18052)
        222          5         22 -9.76211317E-06                    1_GWF-(1,19435) -1.23882101E-07                    1_GWF-(1,18256)
        223          5         23 -8.60185795E-06                    1_GWF-(1,19363) -1.17527245E-07                    1_GWF-(1,18267)
        224          5         24 -6.29676833E-06                    1_GWF-(1,19499) -1.05739310E-07                    1_GWF-(1,18057)
        225          5         25 -5.96238500E-06                    1_GWF-(1,19556) -8.93027657E-08                    1_GWF-(1,18256)
        226          5         26 -4.02294476E-06                    1_GWF-(1,19555)  7.25417597E-08                    1_GWF-(1,18058)
        227          5         27 -4.25158746E-06                    1_GWF-(1,19636) -9.07872202E-08                    1_GWF-(1,13891)
        228          5         28 -2.92470932E-06                    1_GWF-(1,17204)  7.41016156E-08                    1_GWF-(1,18057)
        229          5         29  3.12013911E-06                    1_GWF-(1,19601) -7.11873360E-08                    1_GWF-(1,18260)
        230          5         30  3.85721789E-06                    1_GWF-(1,19500) -7.92360690E-08                    1_GWF-(1,18122)
        231          5         31  4.96956673E-06                    1_GWF-(1,19601)  7.56317170E-08                    1_GWF-(1,19601)
        232          5         32  4.55178181E-06                    1_GWF-(1,19556)  7.56521057E-08                    1_GWF-(1,18058)
        233          5         33  5.42864824E-06                    1_GWF-(1,19601) -9.80261869E-08                    1_GWF-(1,18122)
        234          5         34  4.00554534E-06                    1_GWF-(1,19602) -1.17573316E-07                    1_GWF-(1,18101)
        235          5         35  3.78114398E-06                    1_GWF-(1,19433) -1.00266491E-07                    1_GWF-(1,18102)
        236          5         36  4.61997475E-06                    1_GWF-(1,19500) -1.31406594E-07                    1_GWF-(1,13443)
        237          5         37  4.72453505E-06                    1_GWF-(1,19499)  9.11090207E-08                    1_GWF-(1,19499)
        238          5         38  4.98785203E-06                    1_GWF-(1,19601)  8.39939812E-08                    1_GWF-(1,19601)
        239          5         39 -3.35363692E-06                    1_GWF-(1,19500) -1.19234240E-07                    1_GWF-(1,13443)
        240          5         40 -3.45004789E-06                    1_GWF-(1,19635)  1.23202279E-07                    1_GWF-(1,13443)
        241          5         41 -3.03923207E-06                    1_GWF-(1,19636) -1.54921639E-07                    1_GWF-(1,13443)
        242          5         42  2.67964323E-06                    1_GWF-(1,18200)  1.08088040E-07                    1_GWF-(1,13443)
        243          5         43 -2.50743233E-06                    1_GWF-(1,19499) -9.58517676E-08                    1_GWF-(1,13443)
        244          5         44 -2.63507015E-06                    1_GWF-(1,19635)  6.44172108E-08                    1_GWF-(1,13443)
        245          5         45 -2.57134232E-06                    1_GWF-(1,19662) -4.42788371E-08                    1_GWF-(1,19662)
        246          5         46 -2.06707291E-06                    1_GWF-(1,19500) -6.22044572E-08                    1_GWF-(1,13443)
        247          5         47  1.39901081E-06                    1_GWF-(1,19635)  9.28914096E-08                    1_GWF-(1,13443)
        248          5         48 -1.38900515E-06                    1_GWF-(1,19285) -7.23330422E-08                    1_GWF-(1,13443)
        249          5         49 -1.23264751E-06                    1_GWF-(1,19284)  7.87921524E-08                    1_GWF-(1,13443)
        250          5         50  1.48173789E-06                    1_GWF-(1,18121) -6.88543014E-08                    1_GWF-(1,13443)
        251          6          1  1.39034001E-06                    1_GWF-(1,19285)  7.46277660E-08                    1_GWF-(1,13443)
        252          6          2 -1.83429935E-06                    1_GWF-(1,18118) -4.05508805E-08                    1_GWF-(1,13443)
        253          6          3  1.27387536E-06                    1_GWF-(1,19285) -6.04932991E-08                    1_GWF-(1,18118)
        254          6          4 -1.04566419E-06                    1_GWF-(1,19635)  5.23247680E-08                    1_GWF-(1,18118)
        255          6          5  1.29100245E-06                    1_GWF-(1,19635) -2.78874182E-08                    1_GWF-(1,13443)
        256          6          6  1.31082582E-06                    1_GWF-(1,19662)  5.24467103E-08                    1_GWF-(1,13443)
        257          6          7  1.32263093E-06                    1_GWF-(1,19635)  2.59874300E-08                    1_GWF-(1,18118)
        258          6          8  9.85444853E-07                    1_GWF-(1,19499)  3.30062559E-08                    1_GWF-(1,18117)
        259          7          1  7.92641541E-07                    1_GWF-(1,19660) -1.59162259E-08                    1_GWF-(1,19678)
 --------------------------------------------------------------------------------------------------------------------------------------



 MEMORY MANAGER TOTAL STORAGE BY DATA TYPE, IN MEGABYTES
 -------------------------------
                    ALLOCATED   
 DATA TYPE           MEMORY     
 -------------------------------
 Character        4.34890000E-02
 Logical          4.40000000E-05
 Integer          3.8629360     
 Real             8.8243920     
 -------------------------------
 Total            12.730861     
 -------------------------------


 
 Run end date and time (yyyy/mm/dd hh:mm:ss): 2022/03/25  9:09:12
 Elapsed run time:  0.354 Seconds
 Normal termination of simulation.
