                                   MODFLOW 6
                U.S. GEOLOGICAL SURVEY MODULAR HYDROLOGIC MODEL
                            VERSION 6.3.0 03/08/2022

   MODFLOW 6 compiled Mar 15 2022 10:29:07 with Intel(R) Fortran Intel(R) 64
   Compiler for applications running on Intel(R) 64, Version 19.1.1.217 Build
                                    20200306

This software is preliminary or provisional and is subject to 
revision. It is being provided to meet the need for timely best 
science. The software has not received final approval by the U.S. 
Geological Survey (USGS). No warranty, expressed or implied, is made 
by the USGS or the U.S. Government as to the functionality of the 
software and related material nor shall the fact of release 
constitute any such warranty. The software is provided on the 
condition that neither the USGS nor the U.S. Government shall be held 
liable for any damages resulting from the authorized or unauthorized 
use of the software.


As a work of the United States Government, this USGS product is 
in the public domain within the United States. You can copy, 
modify, distribute, and perform the work, even for commercial 
purposes, all without asking permission. Additionally, USGS 
waives copyright and related rights in the work worldwide 
through CC0 1.0 Universal Public Domain Dedication 
(https://creativecommons.org/publicdomain/zero/1.0/).

The following GNU Lesser General Public License (LGPL) libraries
are used in this USGS product:

    SPARSKIT version 2.0
      ilut, luson, and qsplit 
      (https://www-users.cse.umn.edu/~saad/software/SPARSKIT/)

    RCM - Reverse Cuthill McKee Ordering
      (https://people.math.sc.edu/Burkardt/f_src/rcm/rcm.html)

    BLAS - Basic Linear Algebra Subprograms Level 1
      (https://people.math.sc.edu/Burkardt/f_src/blas1_d/blas1_d.html)

    SPARSEKIT - Sparse Matrix Utility Package
      amux, dperm, dvperm, rperm, and cperm
      (https://people.sc.fsu.edu/~jburkardt/f77_src/sparsekit/sparsekit.html)

The following BSD-3 License libraries are used in this USGS product:

    Modern Fortran DAG Library
      Copyright (c) 2018, Jacob Williams
      All rights reserved.
      (https://github.com/jacobwilliams/daglib)

MODFLOW 6 compiler options: -I./obj_temp -O2 -no-heap-arrays -fpe0 -traceback
-fpp -module ./mod_temp/ -c -o ./obj_temp/compilerversion.o

System command used to initiate simulation:
mf6

MODFLOW was compiled using uniform precision.

Real Variables
  KIND: 8
  TINY (smallest non-zero value):    2.225074-308
  HUGE (largest value):    1.797693+308
  PRECISION: 15
  BIT SIZE: 64

Integer Variables
  KIND: 4
  HUGE (largest value): 2147483647
  BIT SIZE: 32

Long Integer Variables
  KIND: 8
  HUGE (largest value): 9223372036854775807
  BIT SIZE: 64

Logical Variables
  KIND: 4
  BIT SIZE: 32
 

 OPENED mfsim.nam
 FILE TYPE:NAM   UNIT 1001   STATUS:OLD                 
 FORMAT:FORMATTED              ACCESS:SEQUENTIAL          
 ACTION:READ                

 # File generated by Flopy version 3.3.5 on 03/16/2022 at 21:59:56.

 READING SIMULATION OPTIONS
 END OF SIMULATION OPTIONS

 READING SIMULATION TIMING

 OPENED mfsim.tdis
 FILE TYPE:TDIS   UNIT 1002   STATUS:OLD                 
 FORMAT:FORMATTED              ACCESS:SEQUENTIAL          
 ACTION:READ                


 TDIS -- TEMPORAL DISCRETIZATION PACKAGE,
 VERSION 1 : 11/13/2014 - INPUT READ FROM UNIT 1002
 # File generated by Flopy version 3.3.5 on 03/16/2022 at 21:59:56.
 PROCESSING TDIS OPTIONS
    SIMULATION TIME UNIT IS SECONDS
 END OF TDIS OPTIONS
 PROCESSING TDIS DIMENSIONS
    1 STRESS PERIOD(S) IN SIMULATION
 END OF TDIS DIMENSIONS
 PROCESSING TDIS PERIODDATA


 STRESS PERIOD     LENGTH       TIME STEPS     MULTIPLIER FOR DELT
 ----------------------------------------------------------------------------
        1         2.000000          1                    1.000
 END OF TDIS PERIODDATA
 END OF SIMULATION TIMING

 READING SIMULATION MODELS
    GWF6 model ML will be created as model 1
 END OF SIMULATION MODELS

 READING SIMULATION EXCHANGES
 END OF SIMULATION EXCHANGES

 READING SOLUTIONGROUP

 Creating solution: SLN_1           

 OPENED mfsim.ims
 FILE TYPE:IMS   UNIT 1015   STATUS:OLD                 
 FORMAT:FORMATTED              ACCESS:SEQUENTIAL          
 ACTION:READ                

 END OF SIMULATION SOLUTIONGROUP

PROCESSING MODEL CONNECTIONS

 IMS -- ITERATIVE MODEL SOLUTION PACKAGE, VERSION 6, 4/28/2017
         INPUT READ FROM UNIT 1015
 # File generated by Flopy version 3.3.5 on 03/16/2022 at 21:59:56.

 PROCESSING IMS OPTIONS
 END OF IMS OPTIONS

 PROCESSING IMS NONLINEAR
 END OF IMS NONLINEAR DATA
 ***UNDER-RELAXATION WILL NOT BE USED***
 
 ***IMS LINEAR SOLVER WILL BE USED***

 IMSLINEAR -- UNSTRUCTURED LINEAR SOLUTION PACKAGE, VERSION 8, 04/28/2017

 PROCESSING LINEAR DATA
 END OF LINEAR DATA
 
 A symmetric matrix will be solved

 OUTER ITERATION CONVERGENCE CRITERION    (DVCLOSE) =    0.100000E-04
 MAXIMUM NUMBER OF OUTER ITERATIONS        (MXITER) = 100
 SOLVER PRINTOUT INDEX                     (IPRIMS) = 2
 NONLINEAR ITERATION METHOD            (NONLINMETH) = 0
 LINEAR SOLUTION METHOD                   (LINMETH) = 1

       SOLUTION BY THE        CONJUGATE-GRADIENT       METHOD
 ------------------------------------------------------------------
 MAXIMUM OF 100 CALLS OF SOLUTION ROUTINE
 MAXIMUM OF 50 INTERNAL ITERATIONS PER CALL TO SOLUTION ROUTINE
 LINEAR ACCELERATION METHOD            = CG        
 MATRIX PRECONDITIONING TYPE           = INCOMPLETE LU       
 MATRIX SCALING APPROACH               = NO SCALING          
 MATRIX REORDERING APPROACH            = ORIGINAL ORDERING        
 NUMBER OF ORTHOGONALIZATIONS          = 0
 HEAD CHANGE CRITERION FOR CLOSURE     =    0.10000E-05
 RESIDUAL CHANGE CRITERION FOR CLOSURE =    0.10000E-04
 RESIDUAL CONVERGENCE OPTION           = 1
 RESIDUAL CONVERGENCE NORM             = INFINITY NORM S 
 RELAXATION FACTOR                     =    0.00000E+00



 
    Solving:  Stress period:     1    Time step:     1
 
1
                            STRESS PERIOD NO. 1, LENGTH =   2.000000    
                            -----------------------------------------------
                            NUMBER OF TIME STEPS = 1
                            MULTIPLIER FOR DELT =     1.000
                            INITIAL TIME STEP SIZE =   2.000000    

 SLN_1 OUTER ITERATION SUMMARY
 ----------------------------------------------------------------------------------------------------------
                                OUTER      INNER                    STEP   MAXIMUM CHANGE MODEL-(CELLID) OR
 OUTER ITERATION STEP       ITERATION  ITERATION  MAXIMUM CHANGE SUCCESS             MODEL-PACKAGE-(NUMBER)
 ----------------------------------------------------------------------------------------------------------
 Model                              1         50       10.706142                            1_GWF-(1,19678)
 Model                              2         50      -2.1759998                            1_GWF-(1,19530)
 Model                              3         50 -8.29344952E-03                            1_GWF-(1,10889)
 Model                              4         36 -9.81918231E-05                             1_GWF-(1,3399)
 Model                              5          1 -5.10595953E-07       *                    1_GWF-(1,19435)
 ----------------------------------------------------------------------------------------------------------


 5 CALLS TO NUMERICAL SOLUTION IN TIME STEP 1 STRESS PERIOD 1
 187 TOTAL ITERATIONS

 SLN_1 INNER ITERATION SUMMARY
 --------------------------------------------------------------------------------------------------------------------------------------
      TOTAL      OUTER      INNER                                                            MAXIMUM                                   
  ITERATION  ITERATION  ITERATION  MAXIMUM CHANGE      MAXIMUM CHANGE MODEL-(CELLID)        RESIDUAL    MAXIMUM RESIDUAL MODEL-(CELLID)
 --------------------------------------------------------------------------------------------------------------------------------------
          1          1          1      -9.3326632                     1_GWF-(1,6706)       4.1340150                    1_GWF-(1,14461)
          2          1          2      -5.9340290                    1_GWF-(1,11883)       3.7121563                    1_GWF-(1,14467)
          3          1          3      -4.3761341                     1_GWF-(1,1846)       2.5261997                    1_GWF-(1,14513)
          4          1          4      -4.1759017                     1_GWF-(1,1842)       2.0150925                    1_GWF-(1,14539)
          5          1          5       2.2223176                    1_GWF-(1,19679)       1.6225474                    1_GWF-(1,14547)
          6          1          6       2.5024101                    1_GWF-(1,19678)       1.3903427                    1_GWF-(1,14636)
          7          1          7       2.4583217                    1_GWF-(1,19660)       1.3381441                    1_GWF-(1,14653)
          8          1          8       2.8728904                    1_GWF-(1,19678)       1.3676224                    1_GWF-(1,14683)
          9          1          9       3.1046628                    1_GWF-(1,19679)       1.5351224                    1_GWF-(1,14690)
         10          1         10       4.1164947                    1_GWF-(1,19678)       1.7127072                    1_GWF-(1,15032)
         11          1         11       3.0897013                    1_GWF-(1,19679)       1.5698499                    1_GWF-(1,15037)
         12          1         12       2.9335581                    1_GWF-(1,19499)       1.2603730                    1_GWF-(1,19662)
         13          1         13       2.2085278                    1_GWF-(1,19635)       1.2811709                    1_GWF-(1,19635)
         14          1         14       2.5922582                    1_GWF-(1,19636)      -1.3311870                    1_GWF-(1,19635)
         15          1         15       2.2755363                    1_GWF-(1,19635)       1.2069863                    1_GWF-(1,19635)
         16          1         16      -1.8319934                    1_GWF-(1,19678)      0.87941165                    1_GWF-(1,19636)
         17          1         17      -2.0148114                    1_GWF-(1,19636)      0.95182529                    1_GWF-(1,14542)
         18          1         18      -1.4560055                    1_GWF-(1,19556)      0.92755601                    1_GWF-(1,19601)
         19          1         19      -2.1579746                    1_GWF-(1,19601)      0.87026708                    1_GWF-(1,19556)
         20          1         20      -2.3165522                    1_GWF-(1,19556)     -0.92922683                    1_GWF-(1,19556)
         21          1         21      -2.0047345                    1_GWF-(1,19601)     -0.67209903                    1_GWF-(1,19601)
         22          1         22      -1.7580129                    1_GWF-(1,19499)     -0.56524518                        1_GWF-(1,6)
         23          1         23      -1.6363037                    1_GWF-(1,19500)      0.53545881                        1_GWF-(1,6)
         24          1         24      -1.3546552                    1_GWF-(1,19499)     -0.47639739                    1_GWF-(1,19499)
         25          1         25      -1.0685175                    1_GWF-(1,19500)     -0.40582081                    1_GWF-(1,19500)
         26          1         26     -0.74518881                    1_GWF-(1,19433)     -0.36303255                    1_GWF-(1,19433)
         27          1         27     -0.73739451                     1_GWF-(1,3860)     -0.30922590                    1_GWF-(1,19500)
         28          1         28     -0.78938467                     1_GWF-(1,3852)      0.32576873                        1_GWF-(1,6)
         29          1         29     -0.74754097                     1_GWF-(1,3850)      0.35476786                    1_GWF-(1,14468)
         30          1         30     -0.58253910                     1_GWF-(1,3675)      0.25477320                    1_GWF-(1,14469)
         31          1         31     -0.52550798                     1_GWF-(1,3659)     -0.20762794                        1_GWF-(1,6)
         32          1         32     -0.57907134                     1_GWF-(1,3590)      0.14338010                        1_GWF-(1,6)
         33          1         33     -0.44029921                     1_GWF-(1,3584)      0.10668570                    1_GWF-(1,14511)
         34          1         34     -0.23912549                     1_GWF-(1,3749)  7.89967942E-02                        1_GWF-(1,6)
         35          1         35     -0.23663936                     1_GWF-(1,4665) -8.65865228E-02                    1_GWF-(1,14512)
         36          1         36      0.26153370                     1_GWF-(1,3586) -7.79864528E-02                    1_GWF-(1,14514)
         37          1         37      0.26377776                     1_GWF-(1,3584) -6.12203853E-02                    1_GWF-(1,14631)
         38          1         38      0.23292836                     1_GWF-(1,3758) -6.79944389E-02                    1_GWF-(1,14495)
         39          1         39      0.15828265                     1_GWF-(1,3830) -6.44773134E-02                    1_GWF-(1,14513)
         40          1         40      0.19380567                     1_GWF-(1,3821) -4.55547956E-02                    1_GWF-(1,14494)
         41          1         41      0.14836469                     1_GWF-(1,3862) -3.80791608E-02                    1_GWF-(1,14512)
         42          1         42  8.69442340E-02                     1_GWF-(1,3389) -3.87424303E-02                    1_GWF-(1,15032)
         43          1         43      0.10890935                     1_GWF-(1,3580) -3.39067823E-02                    1_GWF-(1,14689)
         44          1         44 -8.78923283E-02                     1_GWF-(1,3777) -2.90166383E-02                        1_GWF-(1,6)
         45          1         45  6.19561359E-02                     1_GWF-(1,6980) -2.55462186E-02                    1_GWF-(1,14693)
         46          1         46 -6.37955765E-02                     1_GWF-(1,3914) -3.04567044E-02                    1_GWF-(1,14662)
         47          1         47 -9.72696539E-02                     1_GWF-(1,3589) -2.53088651E-02                    1_GWF-(1,14653)
         48          1         48  8.65335027E-02                     1_GWF-(1,3754) -1.88053827E-02                    1_GWF-(1,14597)
         49          1         49  7.03613077E-02                     1_GWF-(1,3753) -2.82405499E-02                    1_GWF-(1,14493)
         50          1         50      0.10281522                     1_GWF-(1,3586) -3.29528190E-02                    1_GWF-(1,14496)
         51          2          1     -0.98421672                    1_GWF-(1,19394)     -0.65165759                    1_GWF-(1,16832)
         52          2          2     -0.94273520                    1_GWF-(1,19397)     -0.36176980                    1_GWF-(1,19321)
         53          2          3     -0.52281893                    1_GWF-(1,19466)      0.18885602                    1_GWF-(1,19393)
         54          2          4     -0.42880372                    1_GWF-(1,19385)     -0.17131952                    1_GWF-(1,19393)
         55          2          5     -0.39007294                    1_GWF-(1,19661)      0.15618511                    1_GWF-(1,16832)
         56          2          6     -0.35409968                    1_GWF-(1,19662) -6.47793887E-02                    1_GWF-(1,19324)
         57          2          7     -0.25207936                    1_GWF-(1,19636) -5.05127580E-02                    1_GWF-(1,19393)
         58          2          8     -0.19362118                    1_GWF-(1,19599)  4.27319779E-02                    1_GWF-(1,16832)
         59          2          9     -0.20819747                    1_GWF-(1,19499) -4.30484211E-02                    1_GWF-(1,19459)
         60          2         10     -0.18620559                    1_GWF-(1,19557)  3.64737800E-02                    1_GWF-(1,19459)
         61          2         11     -0.14371415                    1_GWF-(1,19435)  2.61538705E-02                    1_GWF-(1,19515)
         62          2         12 -9.58091373E-02                    1_GWF-(1,19363) -2.06412648E-02                    1_GWF-(1,19518)
         63          2         13 -5.53522033E-02                    1_GWF-(1,19435)  1.83935611E-02                    1_GWF-(1,19678)
         64          2         14 -3.66510394E-02                    1_GWF-(1,19174) -1.88544689E-02                    1_GWF-(1,19662)
         65          2         15  3.29883548E-02                    1_GWF-(1,19662) -1.70446680E-02                    1_GWF-(1,19635)
         66          2         16  4.12682837E-02                    1_GWF-(1,19635)  1.35166715E-02                    1_GWF-(1,19635)
         67          2         17  3.59121499E-02                    1_GWF-(1,19636)  1.69212027E-02                    1_GWF-(1,19636)
         68          2         18 -4.04871859E-02                    1_GWF-(1,18746)  1.33556066E-02                    1_GWF-(1,19635)
         69          2         19 -3.40617939E-02                    1_GWF-(1,18708) -1.25609312E-02                    1_GWF-(1,19635)
         70          2         20 -2.98097497E-02                    1_GWF-(1,18587) -1.26635310E-02                    1_GWF-(1,19601)
         71          2         21  2.99889149E-02                    1_GWF-(1,19363) -9.02454665E-03                    1_GWF-(1,19556)
         72          2         22  2.47681385E-02                    1_GWF-(1,19435)  7.96711131E-03                    1_GWF-(1,19556)
         73          2         23  2.11436278E-02                    1_GWF-(1,19557) -7.77340538E-03                    1_GWF-(1,19499)
         74          2         24  2.28850318E-02                    1_GWF-(1,19499)  1.01157766E-02                    1_GWF-(1,19499)
         75          2         25 -1.70267429E-02                    1_GWF-(1,16222)  8.74972075E-03                    1_GWF-(1,19500)
         76          2         26 -1.79985895E-02                    1_GWF-(1,19678) -8.34182804E-03                    1_GWF-(1,19500)
         77          2         27 -1.88933727E-02                    1_GWF-(1,19433) -9.15201771E-03                    1_GWF-(1,19433)
         78          2         28 -1.83525699E-02                    1_GWF-(1,19435)  9.69317267E-03                    1_GWF-(1,19433)
         79          2         29 -2.03390333E-02                    1_GWF-(1,19433) -6.29207602E-03                    1_GWF-(1,19433)
         80          2         30 -1.45005799E-02                    1_GWF-(1,19500) -6.06916665E-03                    1_GWF-(1,19500)
         81          2         31  1.04289094E-02                    1_GWF-(1,18593)  4.55109389E-03                    1_GWF-(1,19556)
         82          2         32  1.19741826E-02                    1_GWF-(1,18589)  4.41465863E-03                    1_GWF-(1,19678)
         83          2         33  1.21064671E-02                    1_GWF-(1,16419) -3.94863683E-03                    1_GWF-(1,19499)
         84          2         34  1.73517245E-02                    1_GWF-(1,16396) -4.32914816E-03                    1_GWF-(1,19566)
         85          2         35  1.81159386E-02                    1_GWF-(1,16384)  5.21343048E-03                    1_GWF-(1,19566)
         86          2         36  1.88234222E-02                    1_GWF-(1,16222)  2.76485557E-03                        1_GWF-(1,6)
         87          2         37  1.18067929E-02                    1_GWF-(1,16218) -2.43836336E-03                        1_GWF-(1,6)
         88          2         38  7.59851786E-03                    1_GWF-(1,16204)  2.38311938E-03                        1_GWF-(1,6)
         89          2         39  5.15610086E-03                    1_GWF-(1,16173) -1.93518130E-03                        1_GWF-(1,6)
         90          2         40  4.13985088E-03                    1_GWF-(1,16126)  1.65497914E-03                        1_GWF-(1,6)
         91          2         41  4.07551842E-03                    1_GWF-(1,16123) -1.51894970E-03                        1_GWF-(1,6)
         92          2         42  3.44278660E-03                    1_GWF-(1,18369)  1.35764861E-03                        1_GWF-(1,6)
         93          2         43  2.55771393E-03                    1_GWF-(1,16012) -1.16072049E-03                        1_GWF-(1,6)
         94          2         44  2.04136677E-03                    1_GWF-(1,18033)  1.02329707E-03                        1_GWF-(1,6)
         95          2         45  2.38912855E-03                    1_GWF-(1,15449) -9.75601650E-04                        1_GWF-(1,6)
         96          2         46  2.18506455E-03                    1_GWF-(1,15448)  9.28741391E-04                        1_GWF-(1,6)
         97          2         47  2.30598066E-03                     1_GWF-(1,4682) -7.55228063E-04                        1_GWF-(1,6)
         98          2         48  2.36061838E-03                     1_GWF-(1,4509)  6.47079860E-04                    1_GWF-(1,11861)
         99          2         49  2.51845785E-03                     1_GWF-(1,4494) -6.78635769E-04                    1_GWF-(1,19396)
        100          2         50 -2.18442824E-03                    1_GWF-(1,16111)  6.78072573E-04                     1_GWF-(1,1834)
        101          3          1 -8.43657149E-03                    1_GWF-(1,10889) -1.27915391E-03                    1_GWF-(1,10889)
        102          3          2 -4.15563710E-03                    1_GWF-(1,10892) -9.85453345E-04                    1_GWF-(1,10888)
        103          3          3 -2.31762823E-03                    1_GWF-(1,11163)  6.26085353E-04                    1_GWF-(1,13673)
        104          3          4 -1.45121378E-03                    1_GWF-(1,18411) -5.51918944E-04                    1_GWF-(1,13673)
        105          3          5 -1.67155160E-03                    1_GWF-(1,18414) -5.09238164E-04                    1_GWF-(1,13672)
        106          3          6 -1.28867369E-03                    1_GWF-(1,18404)  3.93127904E-04                    1_GWF-(1,10888)
        107          3          7 -9.98453737E-04                    1_GWF-(1,18492)  3.32632249E-04                    1_GWF-(1,10877)
        108          3          8 -7.35237100E-04                    1_GWF-(1,10893)  3.12004426E-04                        1_GWF-(1,6)
        109          3          9 -6.18377326E-04                    1_GWF-(1,10552) -3.17190874E-04                        1_GWF-(1,6)
        110          3         10  6.23735472E-04                    1_GWF-(1,17858)  3.32491151E-04                        1_GWF-(1,6)
        111          3         11  6.11627451E-04                     1_GWF-(1,4456) -3.84241557E-04                        1_GWF-(1,6)
        112          3         12  6.90865862E-04                    1_GWF-(1,10556)  4.05795794E-04                        1_GWF-(1,6)
        113          3         13  7.19245512E-04                     1_GWF-(1,4677) -4.18547208E-04                        1_GWF-(1,6)
        114          3         14  8.73027211E-04                     1_GWF-(1,3575)  3.75894155E-04                        1_GWF-(1,6)
        115          3         15  8.08477587E-04                     1_GWF-(1,5228) -2.73845804E-04                        1_GWF-(1,6)
        116          3         16  8.67501215E-04                     1_GWF-(1,4643)  1.80506462E-04                        1_GWF-(1,6)
        117          3         17  6.95584824E-04                     1_GWF-(1,4791) -1.64185424E-04                    1_GWF-(1,14487)
        118          3         18 -5.60927634E-04                    1_GWF-(1,17875)  1.64658576E-04                    1_GWF-(1,19678)
        119          3         19 -4.37843379E-04                    1_GWF-(1,17874) -1.65056738E-04                    1_GWF-(1,19601)
        120          3         20  4.61206962E-04                     1_GWF-(1,4499) -1.88697433E-04                    1_GWF-(1,19500)
        121          3         21  4.50975338E-04                     1_GWF-(1,4497) -1.74647536E-04                    1_GWF-(1,19601)
        122          3         22  3.77858009E-04                    1_GWF-(1,19433)  1.88764330E-04                    1_GWF-(1,19433)
        123          3         23  3.70007492E-04                    1_GWF-(1,17830) -1.80406920E-04                    1_GWF-(1,19433)
        124          3         24  4.28568538E-04                    1_GWF-(1,17861)  1.60502320E-04                    1_GWF-(1,19433)
        125          3         25  3.89147720E-04                    1_GWF-(1,17872)  1.31366683E-04                    1_GWF-(1,19500)
        126          3         26  2.82569759E-04                    1_GWF-(1,17573)  9.61727370E-05                    1_GWF-(1,19499)
        127          3         27  2.06416091E-04                    1_GWF-(1,17564) -8.97146900E-05                    1_GWF-(1,19499)
        128          3         28  1.69375218E-04                    1_GWF-(1,17636)  7.48477411E-05                    1_GWF-(1,19499)
        129          3         29 -1.44214628E-04                     1_GWF-(1,4536) -5.78250320E-05                    1_GWF-(1,19556)
        130          3         30 -1.56586736E-04                    1_GWF-(1,17870) -4.92620382E-05                    1_GWF-(1,19601)
        131          3         31 -1.60550351E-04                    1_GWF-(1,17867)  4.68247548E-05                    1_GWF-(1,10557)
        132          3         32 -1.27218102E-04                    1_GWF-(1,17584) -4.47707761E-05                    1_GWF-(1,19676)
        133          3         33 -1.09706538E-04                    1_GWF-(1,17567)  4.71861152E-05                    1_GWF-(1,19636)
        134          3         34 -8.15348623E-05                    1_GWF-(1,19636)  3.94189194E-05                    1_GWF-(1,10557)
        135          3         35  8.00800606E-05                     1_GWF-(1,4497) -3.77540053E-05                    1_GWF-(1,19635)
        136          3         36  7.91489781E-05                     1_GWF-(1,4453) -3.47911272E-05                    1_GWF-(1,19662)
        137          3         37  7.11880788E-05                    1_GWF-(1,19662)  3.48114077E-05                    1_GWF-(1,19662)
        138          3         38  6.09466547E-05                    1_GWF-(1,17856)  2.47065098E-05                    1_GWF-(1,19635)
        139          3         39  7.41472370E-05                    1_GWF-(1,17858)  2.46462904E-05                    1_GWF-(1,19678)
        140          3         40  6.82657692E-05                    1_GWF-(1,17859)  2.11183930E-05                    1_GWF-(1,10557)
        141          3         41  5.36641018E-05                     1_GWF-(1,3454)  1.93536837E-05                        1_GWF-(1,6)
        142          3         42  4.98554671E-05                    1_GWF-(1,17606) -1.74864468E-05                        1_GWF-(1,6)
        143          3         43  4.41741413E-05                    1_GWF-(1,17606)  2.04374989E-05                    1_GWF-(1,10557)
        144          3         44 -5.04433136E-05                    1_GWF-(1,17874) -1.50031925E-05                        1_GWF-(1,6)
        145          3         45 -3.97232643E-05                    1_GWF-(1,18207)  1.46533656E-05                    1_GWF-(1,14591)
        146          3         46  3.95686682E-05                     1_GWF-(1,4526)  1.70977670E-05                    1_GWF-(1,10557)
        147          3         47  4.68890445E-05                     1_GWF-(1,4499) -1.31150494E-05                    1_GWF-(1,10557)
        148          3         48  4.64314177E-05                     1_GWF-(1,4456)  1.19452664E-05                    1_GWF-(1,14464)
        149          3         49  5.32050473E-05                     1_GWF-(1,4447) -1.47574554E-05                    1_GWF-(1,16832)
        150          3         50  3.73969196E-05                     1_GWF-(1,3589) -1.38621131E-05                    1_GWF-(1,10557)
        151          4          1 -1.65810543E-05                     1_GWF-(1,4452)  9.57600969E-06                    1_GWF-(1,10557)
        152          4          2 -3.05225011E-05                     1_GWF-(1,4463) -5.50427432E-06                       1_GWF-(1,23)
        153          4          3 -2.06804790E-05                     1_GWF-(1,4462) -9.18355318E-06                    1_GWF-(1,10557)
        154          4          4 -1.63623800E-05                     1_GWF-(1,4500)  8.93523746E-06                    1_GWF-(1,10557)
        155          4          5 -1.28630703E-05                    1_GWF-(1,19661)  5.19946468E-06                    1_GWF-(1,14497)
        156          4          6 -1.55869684E-05                    1_GWF-(1,19662) -5.26944187E-06                    1_GWF-(1,10557)
        157          4          7 -1.42822596E-05                    1_GWF-(1,19661)  7.33454360E-06                    1_GWF-(1,10557)
        158          4          8 -1.24431334E-05                    1_GWF-(1,17640) -3.52553120E-06                        1_GWF-(1,6)
        159          4          9 -1.17288678E-05                     1_GWF-(1,7005)  3.78382696E-06                        1_GWF-(1,6)
        160          4         10 -1.23538806E-05                     1_GWF-(1,3389)  5.36512466E-06                    1_GWF-(1,10557)
        161          4         11  1.18570422E-05                    1_GWF-(1,19678)  4.21212902E-06                    1_GWF-(1,19678)
        162          4         12 -9.64743877E-06                     1_GWF-(1,3436)  3.49317847E-06                    1_GWF-(1,19660)
        163          4         13  8.79282223E-06                    1_GWF-(1,19662)  4.35427427E-06                    1_GWF-(1,19662)
        164          4         14  8.46844300E-06                    1_GWF-(1,19635) -4.12753647E-06                    1_GWF-(1,19662)
        165          4         15  8.20125414E-06                    1_GWF-(1,19662) -3.71355159E-06                    1_GWF-(1,19635)
        166          4         16  8.83529476E-06                    1_GWF-(1,19635)  3.71085972E-06                    1_GWF-(1,10557)
        167          4         17  7.37415976E-06                    1_GWF-(1,19636)  3.11829444E-06                    1_GWF-(1,19636)
        168          4         18  5.93038521E-06                    1_GWF-(1,17878) -2.30231114E-06                    1_GWF-(1,10557)
        169          4         19  5.38573386E-06                    1_GWF-(1,17883)  2.51067942E-06                    1_GWF-(1,10557)
        170          4         20  5.67566277E-06                    1_GWF-(1,18205) -1.98177152E-06                    1_GWF-(1,19601)
        171          4         21  5.92502363E-06                     1_GWF-(1,4514) -2.00788463E-06                    1_GWF-(1,10557)
        172          4         22  5.80401425E-06                     1_GWF-(1,4515)  2.12135397E-06                    1_GWF-(1,19556)
        173          4         23  4.81294774E-06                     1_GWF-(1,4715) -1.95943304E-06                    1_GWF-(1,19499)
        174          4         24  3.97933027E-06                     1_GWF-(1,3513)  1.96265711E-06                    1_GWF-(1,19499)
        175          4         25 -4.78530371E-06                    1_GWF-(1,17878)  1.77640362E-06                    1_GWF-(1,19500)
        176          4         26 -4.70063313E-06                    1_GWF-(1,19500)  1.59231711E-06                    1_GWF-(1,19433)
        177          4         27 -4.26818284E-06                    1_GWF-(1,19433) -1.34128063E-06                    1_GWF-(1,19433)
        178          4         28 -3.28783932E-06                    1_GWF-(1,19500)  1.14105962E-06                    1_GWF-(1,19433)
        179          4         29 -2.53414988E-06                    1_GWF-(1,19433) -9.16426351E-07                    1_GWF-(1,19433)
        180          4         30  1.90161021E-06                     1_GWF-(1,3259) -8.07993642E-07                    1_GWF-(1,19500)
        181          4         31  1.33643056E-06                     1_GWF-(1,3561) -6.33843261E-07                    1_GWF-(1,19601)
        182          4         32  1.48592016E-06                    1_GWF-(1,17883)  4.91353591E-07                    1_GWF-(1,19678)
        183          4         33  1.57922434E-06                    1_GWF-(1,17883) -4.53339554E-07                    1_GWF-(1,10557)
        184          4         34 -1.31003505E-06                     1_GWF-(1,4666) -3.27994369E-07                    1_GWF-(1,14583)
        185          4         35  1.09740355E-06                    1_GWF-(1,19363) -3.03078633E-07                        1_GWF-(1,6)
        186          4         36  9.09194659E-07                    1_GWF-(1,19435)  3.99207131E-07                        1_GWF-(1,6)
        187          5          1 -5.10595952E-07                    1_GWF-(1,19435) -3.52907974E-07                        1_GWF-(1,6)
 --------------------------------------------------------------------------------------------------------------------------------------



 MEMORY MANAGER TOTAL STORAGE BY DATA TYPE, IN MEGABYTES
 -------------------------------
                    ALLOCATED   
 DATA TYPE           MEMORY     
 -------------------------------
 Character        4.34890000E-02
 Logical          4.40000000E-05
 Integer          4.0204680     
 Real             8.8243920     
 -------------------------------
 Total            12.888393     
 -------------------------------


 
 Run end date and time (yyyy/mm/dd hh:mm:ss): 2022/03/17  9:16:14
 Elapsed run time:  0.331 Seconds
 Normal termination of simulation.
