                                   MODFLOW 6
                U.S. GEOLOGICAL SURVEY MODULAR HYDROLOGIC MODEL
                          GROUNDWATER FLOW MODEL (GWF)
                            VERSION 6.2.0 10/22/2020

   MODFLOW 6 compiled Nov 10 2020 11:25:22 with IFORT compiler (ver. 19.10.0)

This software has been approved for release by the U.S. Geological 
Survey (USGS). Although the software has been subjected to rigorous 
review, the USGS reserves the right to update the software as needed 
pursuant to further analysis and review. No warranty, expressed or 
implied, is made by the USGS or the U.S. Government as to the 
functionality of the software and related material nor shall the 
fact of release constitute any such warranty. Furthermore, the 
software is released on condition that neither the USGS nor the U.S. 
Government shall be held liable for any damages resulting from its 
authorized or unauthorized use. Also refer to the USGS Water 
Resources Software User Rights Notice for complete use, copyright, 
and distribution information.


System command used to initiate simulation:
mf6

MODFLOW was compiled using uniform precision.

Real Variables
  KIND: 8
  TINY (smallest non-zero value):    2.225074-308
  HUGE (largest value):    1.797693+308
  PRECISION: 15
  BIT SIZE: 64

Integer Variables
  KIND: 4
  HUGE (largest value): 2147483647
  BIT SIZE: 32

Long Integer Variables
  KIND: 8
  HUGE (largest value): 9223372036854775807
  BIT SIZE: 64

Logical Variables
  KIND: 4
  BIT SIZE: 32
 

 OPENED ./ml.disv
 FILE TYPE:DISV6                  UNIT 1005   STATUS:OLD                 
 FORMAT:FORMATTED              ACCESS:SEQUENTIAL          
 ACTION:READ                


 OPENED ./ml.ic
 FILE TYPE:IC6                    UNIT 1006   STATUS:OLD                 
 FORMAT:FORMATTED              ACCESS:SEQUENTIAL          
 ACTION:READ                


 OPENED ./ml.npf
 FILE TYPE:NPF6                   UNIT 1007   STATUS:OLD                 
 FORMAT:FORMATTED              ACCESS:SEQUENTIAL          
 ACTION:READ                


 OPENED ./ml.ghb
 FILE TYPE:GHB6                   UNIT 1008   STATUS:OLD                 
 FORMAT:FORMATTED              ACCESS:SEQUENTIAL          
 ACTION:READ                


 OPENED ./ml.rcha
 FILE TYPE:RCH6                   UNIT 1009   STATUS:OLD                 
 FORMAT:FORMATTED              ACCESS:SEQUENTIAL          
 ACTION:READ                


 OPENED ./ml.obs
 FILE TYPE:OBS6                   UNIT 1010   STATUS:OLD                 
 FORMAT:FORMATTED              ACCESS:SEQUENTIAL          
 ACTION:READ                


 OPENED ./ml.oc
 FILE TYPE:OC6                    UNIT 1011   STATUS:OLD                 
 FORMAT:FORMATTED              ACCESS:SEQUENTIAL          
 ACTION:READ                


 OPENED ml.wel
 FILE TYPE:WEL6                   UNIT 1012   STATUS:OLD                 
 FORMAT:FORMATTED              ACCESS:SEQUENTIAL          
 ACTION:READ                


 OPENED ml.drn
 FILE TYPE:DRN6                   UNIT 1013   STATUS:OLD                 
 FORMAT:FORMATTED              ACCESS:SEQUENTIAL          
 ACTION:READ                


 OPENED ml.riv
 FILE TYPE:RIV6                   UNIT 1014   STATUS:OLD                 
 FORMAT:FORMATTED              ACCESS:SEQUENTIAL          
 ACTION:READ                


 DISV -- VERTEX GRID DISCRETIZATION PACKAGE, VERSION 1 : 12/23/2015 - INPUT READ FROM UNIT 1005


 # File generated by Flopy version 3.3.5 on 02/25/2022 at 10:36:58.

 PROCESSING DISCRETIZATION OPTIONS
    MODEL LENGTH UNIT IS METERS
    XORIGIN SPECIFIED AS     405575.681000000    
    YORIGIN SPECIFIED AS     6423306.54000000    
 END OF DISCRETIZATION OPTIONS

 PROCESSING DISCRETIZATION DIMENSIONS
   NLAY = 1
   NCPL = 19687
   NVERT = 20119
 END OF DISCRETIZATION DIMENSIONS

 PROCESSING GRIDDATA
 END PROCESSING GRIDDATA

 PROCESSING VERTICES
   SUCCESSFULLY READ 20119 (X,Y) COORDINATES
   MINIMUM X COORDINATE =     405575.681000000    
   MAXIMUM X COORDINATE =     413975.681000000    
   MINIMUM Y COORDINATE =     6423306.54000000    
   MAXIMUM Y COORDINATE =     6432506.54000000    
 END PROCESSING VERTICES

 PROCESSING CELL2D
   SUCCESSFULLY READ 19687 CELL2D INFORMATION ENTRIES
   MINIMUM X CELL CENTER =     405675.681000000    
   MAXIMUM X CELL CENTER =     413875.681000000    
   MINIMUM Y CELL CENTER =     6423406.54000000    
   MAXIMUM Y CELL CENTER =     6432406.54000000    
   MAXIMUM NUMBER OF CELL2D VERTICES IS 7 FOR CELL 112
 END PROCESSING VERTICES

 NPF -- NODE PROPERTY FLOW PACKAGE, VERSION 1, 3/30/2015 INPUT READ FROM UNIT 1007


 # File generated by Flopy version 3.3.5 on 02/25/2022 at 10:37:00.
 PROCESSING NPF OPTIONS
    CELL-BY-CELL FLOW INFORMATION WILL BE SAVED TO BINARY FILE WHENEVER ICBCFL IS NOT ZERO.
    SPECIFIC DISCHARGE WILL BE CALCULATED AT CELL CENTERS AND WRITTEN TO DATA-SPDIS IN BUDGET FILE WHEN REQUESTED.
 END OF NPF OPTIONS

 WEL   -- WEL PACKAGE, VERSION 8, 2/22/2014 INPUT READ FROM UNIT 1012
 # File generated by Flopy version 3.3.5 on 02/25/2022 at 10:37:00.

 PROCESSING WEL OPTIONS
    WEL BOUNDARIES HAVE NAMES IN LAST COLUMN.
    FLOWS WILL BE SAVED TO BUDGET FILE SPECIFIED IN OUTPUT CONTROL
 END OF WEL OPTIONS

 PROCESSING WEL DIMENSIONS
    MAXBOUND =       9
 END OF WEL DIMENSIONS

 DRN   -- DRN PACKAGE, VERSION 8, 2/22/2014 INPUT READ FROM UNIT 1013
 # File generated by Flopy version 3.3.5 on 02/25/2022 at 10:37:00.

 PROCESSING DRN OPTIONS
    DRN BOUNDARIES HAVE NAMES IN LAST COLUMN.
    FLOWS WILL BE SAVED TO BUDGET FILE SPECIFIED IN OUTPUT CONTROL

 OPENED ml.drn.obs
 FILE TYPE:OBS   UNIT 1016   STATUS:OLD                 
 FORMAT:FORMATTED              ACCESS:SEQUENTIAL          
 ACTION:READ                

 END OF DRN OPTIONS

 PROCESSING DRN DIMENSIONS
    MAXBOUND =     133
 END OF DRN DIMENSIONS

 RIV   -- RIV PACKAGE, VERSION 8, 2/22/2014 INPUT READ FROM UNIT 1014
 # File generated by Flopy version 3.3.5 on 02/25/2022 at 10:37:00.

 PROCESSING RIV OPTIONS
    AUXILIARY RIV VARIABLE: FID             
    RIV BOUNDARIES HAVE NAMES IN LAST COLUMN.
    FLOWS WILL BE SAVED TO BUDGET FILE SPECIFIED IN OUTPUT CONTROL
 END OF RIV OPTIONS

 PROCESSING RIV DIMENSIONS
    MAXBOUND =     716
 END OF RIV DIMENSIONS

 GHB   -- GHB PACKAGE, VERSION 8, 2/22/2014 INPUT READ FROM UNIT 1008
 # File generated by Flopy version 3.3.5 on 02/25/2022 at 10:37:00.

 PROCESSING GHB OPTIONS
    GHB BOUNDARIES HAVE NAMES IN LAST COLUMN.
    FLOWS WILL BE SAVED TO BUDGET FILE SPECIFIED IN OUTPUT CONTROL
 END OF GHB OPTIONS

 PROCESSING GHB DIMENSIONS
    MAXBOUND =     153
 END OF GHB DIMENSIONS

 RCH   -- RCH PACKAGE, VERSION 8, 2/22/2014 INPUT READ FROM UNIT 1009
 # File generated by Flopy version 3.3.5 on 02/25/2022 at 10:37:00.

 PROCESSING RCH OPTIONS
    RECHARGE INPUT WILL BE READ AS ARRAY(S).
    FLOWS WILL BE SAVED TO BUDGET FILE SPECIFIED IN OUTPUT CONTROL
 END OF RCH OPTIONS

 IC -- INITIAL CONDITIONS PACKAGE, VERSION 8, 3/28/2015 INPUT READ FROM UNIT 1006
 # File generated by Flopy version 3.3.5 on 02/25/2022 at 10:37:00.
 PROCESSING GRIDDATA

     INITIAL HEAD =   15.00000    
 END PROCESSING GRIDDATA
 PROCESSING GRIDDATA

                ICELLTYPE = 0

 OPENED ../com_ext/k.txt
 FILE TYPE:OPEN/CLOSE   UNIT 1017   STATUS:OLD                 
 FORMAT:FORMATTED              ACCESS:SEQUENTIAL          
 ACTION:READ                

 K33 not provided.  Assuming K33 = K.
 K22 not provided.  Assuming K22 = K.
 END PROCESSING GRIDDATA

The observation utility is active for "ML"
 # File generated by Flopy version 3.3.5 on 02/25/2022 at 10:37:00.

Processing observation options:

Text output number of digits of precision set to: 10
The PRINT_INPUT option has been specified.


 OBSERVATIONS READ FROM FILE "ml.obs"
 ----------------------------------------------------------------------------------------------------------------------------------------------------------------------------------------------------------------------------
 NAME                                     TYPE                                       TIME         LOCATION DATA                              OUTPUT FILENAME                                                                 
 ----------------------------------------------------------------------------------------------------------------------------------------------------------------------------------------------------------------------------
 PRG                                      CONTINUOUS  HEAD                           ALL TIMES    "1 15215"                                  sim/hds.csv                                                                     
 P8                                       CONTINUOUS  HEAD                           ALL TIMES    "1 9276"                                   sim/hds.csv                                                                     
 P24                                      CONTINUOUS  HEAD                           ALL TIMES    "1 8547"                                   sim/hds.csv                                                                     
 P25                                      CONTINUOUS  HEAD                           ALL TIMES    "1 12688"                                  sim/hds.csv                                                                     
 P32                                      CONTINUOUS  HEAD                           ALL TIMES    "1 14479"                                  sim/hds.csv                                                                     
 P33                                      CONTINUOUS  HEAD                           ALL TIMES    "1 14517"                                  sim/hds.csv                                                                     
 PF                                       CONTINUOUS  HEAD                           ALL TIMES    "1 17997"                                  sim/hds.csv                                                                     
 PH                                       CONTINUOUS  HEAD                           ALL TIMES    "1 17730"                                  sim/hds.csv                                                                     
 PZHM1                                    CONTINUOUS  HEAD                           ALL TIMES    "1 13213"                                  sim/hds.csv                                                                     
 P26                                      CONTINUOUS  HEAD                           ALL TIMES    "1 12127"                                  sim/hds.csv                                                                     
 P27                                      CONTINUOUS  HEAD                           ALL TIMES    "1 7418"                                   sim/hds.csv                                                                     
 P28                                      CONTINUOUS  HEAD                           ALL TIMES    "1 7877"                                   sim/hds.csv                                                                     
 P29                                      CONTINUOUS  HEAD                           ALL TIMES    "1 4242"                                   sim/hds.csv                                                                     
 P30                                      CONTINUOUS  HEAD                           ALL TIMES    "1 4931"                                   sim/hds.csv                                                                     
 R20                                      CONTINUOUS  HEAD                           ALL TIMES    "1 9629"                                   sim/hds.csv                                                                     
 R21                                      CONTINUOUS  HEAD                           ALL TIMES    "1 9356"                                   sim/hds.csv                                                                     
 P34                                      CONTINUOUS  HEAD                           ALL TIMES    "1 13823"                                  sim/hds.csv                                                                     
 P37                                      CONTINUOUS  HEAD                           ALL TIMES    "1 14447"                                  sim/hds.csv                                                                     
 P38                                      CONTINUOUS  HEAD                           ALL TIMES    "1 13737"                                  sim/hds.csv                                                                     
 P39                                      CONTINUOUS  HEAD                           ALL TIMES    "1 8590"                                   sim/hds.csv                                                                     
 P40                                      CONTINUOUS  HEAD                           ALL TIMES    "1 8265"                                   sim/hds.csv                                                                     
 AP1                                      CONTINUOUS  HEAD                           ALL TIMES    "1 8655"                                   sim/hds.csv                                                                     
 RCK1                                     CONTINUOUS  HEAD                           ALL TIMES    "1 14592"                                  sim/hds.csv                                                                     
 RCK2                                     CONTINUOUS  HEAD                           ALL TIMES    "1 13891"                                  sim/hds.csv                                                                     
 P23                                      CONTINUOUS  HEAD                           ALL TIMES    "1 5908"                                   sim/hds.csv                                                                     
 ----------------------------------------------------------------------------------------------------------------------------------------------------------------------------------------------------------------------------


    BINARY GRID INFORMATION WILL BE WRITTEN TO:
      UNIT NUMBER: 1019
      FILE NAME: /srv/common/ptrack/case_study/pst/ml_02/./ml.disv.grb

 OPENED /srv/common/ptrack/case_study/pst/ml_02/./ml.disv.grb
 FILE TYPE:DATA(BINARY)   UNIT 1019   STATUS:REPLACE             
 FORMAT:UNFORMATTED            ACCESS:STREAM              
 ACTION:READWRITE           

      THE LAST TIME STEP WILL BE PRINTED
      THE LAST TIME STEP WILL BE PRINTED
 # File generated by Flopy version 3.3.5 on 02/25/2022 at 10:37:00.

 PROCESSING OC OPTIONS

    BUDGET INFORMATION WILL BE WRITTEN TO:
      UNIT NUMBER: 1020
      FILE NAME: ml.cbc

 OPENED ml.cbc
 FILE TYPE:DATA(BINARY)   UNIT 1020   STATUS:REPLACE             
 FORMAT:UNFORMATTED            ACCESS:STREAM              
 ACTION:READWRITE           

    HEAD INFORMATION WILL BE WRITTEN TO:
      UNIT NUMBER: 1021
      FILE NAME: ml.hds

 OPENED ml.hds
 FILE TYPE:DATA(BINARY)   UNIT 1021   STATUS:REPLACE             
 FORMAT:UNFORMATTED            ACCESS:STREAM              
 ACTION:READWRITE           

 END OF OC OPTIONS

The observation utility is active for "DRN_0"
 # File generated by Flopy version 3.3.5 on 02/25/2022 at 10:37:00.

Processing observation options:



start timestep kper="1" kstp="1" mode="normal"


 BEGIN READING OUTPUT CONTROL FOR STRESS PERIOD 1
      THE LAST TIME STEP WILL BE SAVED
      THE LAST TIME STEP WILL BE SAVED
      THE LAST TIME STEP WILL BE PRINTED

 END READING OUTPUT CONTROL FOR STRESS PERIOD 1

 OPENED ext/well_spd_1.txt
 FILE TYPE:OPEN/CLOSE   UNIT 1023   STATUS:OLD                 
 FORMAT:FORMATTED              ACCESS:SEQUENTIAL          
 ACTION:READ                


 OPENED ext/drn_spd_1.txt
 FILE TYPE:OPEN/CLOSE   UNIT 1024   STATUS:OLD                 
 FORMAT:FORMATTED              ACCESS:SEQUENTIAL          
 ACTION:READ                


 OPENED ext/riv_spd_1.txt
 FILE TYPE:OPEN/CLOSE   UNIT 1025   STATUS:OLD                 
 FORMAT:FORMATTED              ACCESS:SEQUENTIAL          
 ACTION:READ                


 OPENED ../com_ext/ghb_spd_1.txt
 FILE TYPE:OPEN/CLOSE   UNIT 1026   STATUS:OLD                 
 FORMAT:FORMATTED              ACCESS:SEQUENTIAL          
 ACTION:READ                


 OPENED ../com_ext/rech_spd_1.txt
 FILE TYPE:OPEN/CLOSE   UNIT 1027   STATUS:OLD                 
 FORMAT:FORMATTED              ACCESS:SEQUENTIAL          
 ACTION:READ                

 UBDSV1 SAVING     FLOW-JA-FACE ON UNIT   1020 AT TIME STEP      1, STRESS PERIOD      1
 UBDSV06 SAVING       DATA-SPDIS IN MODEL ML               PACKAGE NPF             CONNECTED TO MODEL ML               PACKAGE NPF              ON UNIT   1020 AT TIME STEP      1, STRESS PERIOD      1
 UBDSV06 SAVING              WEL IN MODEL ML               PACKAGE ML              CONNECTED TO MODEL ML               PACKAGE WEL_0            ON UNIT   1020 AT TIME STEP      1, STRESS PERIOD      1
 UBDSV06 SAVING              DRN IN MODEL ML               PACKAGE ML              CONNECTED TO MODEL ML               PACKAGE DRN_0            ON UNIT   1020 AT TIME STEP      1, STRESS PERIOD      1
 UBDSV06 SAVING              RIV IN MODEL ML               PACKAGE ML              CONNECTED TO MODEL ML               PACKAGE RIV_0            ON UNIT   1020 AT TIME STEP      1, STRESS PERIOD      1
 UBDSV06 SAVING              GHB IN MODEL ML               PACKAGE ML              CONNECTED TO MODEL ML               PACKAGE GHB_0            ON UNIT   1020 AT TIME STEP      1, STRESS PERIOD      1
 UBDSV06 SAVING              RCH IN MODEL ML               PACKAGE ML              CONNECTED TO MODEL ML               PACKAGE RCHA_0           ON UNIT   1020 AT TIME STEP      1, STRESS PERIOD      1
1
  HEAD IN LAYER   1 AT END OF TIME STEP   1 IN STRESS PERIOD    1
  ---------------------------------------------------------------------------

            1           2           3           4           5           6           7           8           9          10
           11          12          13          14          15          16          17          18          19          20
           21          22          23          24          25          26          27          28          29          30
           31          32          33          34          35          36          37          38          39          40
           41          42          43          44          45          46          47          48          49          50
           51          52          53          54          55          56          57          58          59          60
           61          62          63          64          65          66          67          68          69          70
           71          72          73          74          75          76          77          78          79          80
           81          82          83          84          85          86          87          88          89          90
           91          92          93          94          95          96          97          98          99         100
          101         102         103         104         105         106         107         108         109         110
          111         112         113         114         115         116         117         118         119         120
          121         122         123         124         125         126         127         128         129         130
          131         132         133         134         135         136         137         138         139         140
          141         142         143         144         145         146         147         148         149         150
          151         152         153         154         155         156         157         158         159         160
          161         162         163         164         165         166         167         168         169         170
          171         172         173         174         175         176         177         178         179         180
          181         182         183         184         185         186         187         188         189         190
          191         192         193         194         195         196         197         198         199         200
          201         202         203         204         205         206         207         208         209         210
          211         212         213         214         215         216         217         218         219         220
          221         222         223         224         225         226         227         228         229         230
          231         232         233         234         235         236         237         238         239         240
          241         242         243         244         245         246         247         248         249         250
          251         252         253         254         255         256         257         258         259         260
          261         262         263         264         265         266         267         268         269         270
          271         272         273         274         275         276         277         278         279         280
          281         282         283         284         285         286         287         288         289         290
          291         292         293         294         295         296         297         298         299         300
          301         302         303         304         305         306         307         308         309         310
          311         312         313         314         315         316         317         318         319         320
          321         322         323         324         325         326         327         328         329         330
          331         332         333         334         335         336         337         338         339         340
          341         342         343         344         345         346         347         348         349         350
          351         352         353         354         355         356         357         358         359         360
          361         362         363         364         365         366         367         368         369         370
          371         372         373         374         375         376         377         378         379         380
          381         382         383         384         385         386         387         388         389         390
          391         392         393         394         395         396         397         398         399         400
          401         402         403         404         405         406         407         408         409         410
          411         412         413         414         415         416         417         418         419         420
          421         422         423         424         425         426         427         428         429         430
          431         432         433         434         435         436         437         438         439         440
          441         442         443         444         445         446         447         448         449         450
          451         452         453         454         455         456         457         458         459         460
          461         462         463         464         465         466         467         468         469         470
          471         472         473         474         475         476         477         478         479         480
          481         482         483         484         485         486         487         488         489         490
          491         492         493         494         495         496         497         498         499         500
          501         502         503         504         505         506         507         508         509         510
          511         512         513         514         515         516         517         518         519         520
          521         522         523         524         525         526         527         528         529         530
          531         532         533         534         535         536         537         538         539         540
          541         542         543         544         545         546         547         548         549         550
          551         552         553         554         555         556         557         558         559         560
          561         562         563         564         565         566         567         568         569         570
          571         572         573         574         575         576         577         578         579         580
          581         582         583         584         585         586         587         588         589         590
          591         592         593         594         595         596         597         598         599         600
          601         602         603         604         605         606         607         608         609         610
          611         612         613         614         615         616         617         618         619         620
          621         622         623         624         625         626         627         628         629         630
          631         632         633         634         635         636         637         638         639         640
          641         642         643         644         645         646         647         648         649         650
          651         652         653         654         655         656         657         658         659         660
          661         662         663         664         665         666         667         668         669         670
          671         672         673         674         675         676         677         678         679         680
          681         682         683         684         685         686         687         688         689         690
          691         692         693         694         695         696         697         698         699         700
          701         702         703         704         705         706         707         708         709         710
          711         712         713         714         715         716         717         718         719         720
          721         722         723         724         725         726         727         728         729         730
          731         732         733         734         735         736         737         738         739         740
          741         742         743         744         745         746         747         748         749         750
          751         752         753         754         755         756         757         758         759         760
          761         762         763         764         765         766         767         768         769         770
          771         772         773         774         775         776         777         778         779         780
          781         782         783         784         785         786         787         788         789         790
          791         792         793         794         795         796         797         798         799         800
          801         802         803         804         805         806         807         808         809         810
          811         812         813         814         815         816         817         818         819         820
          821         822         823         824         825         826         827         828         829         830
          831         832         833         834         835         836         837         838         839         840
          841         842         843         844         845         846         847         848         849         850
          851         852         853         854         855         856         857         858         859         860
          861         862         863         864         865         866         867         868         869         870
          871         872         873         874         875         876         877         878         879         880
          881         882         883         884         885         886         887         888         889         890
          891         892         893         894         895         896         897         898         899         900
          901         902         903         904         905         906         907         908         909         910
          911         912         913         914         915         916         917         918         919         920
          921         922         923         924         925         926         927         928         929         930
          931         932         933         934         935         936         937         938         939         940
          941         942         943         944         945         946         947         948         949         950
          951         952         953         954         955         956         957         958         959         960
          961         962         963         964         965         966         967         968         969         970
          971         972         973         974         975         976         977         978         979         980
          981         982         983         984         985         986         987         988         989         990
          991         992         993         994         995         996         997         998         999        1000
         1001        1002        1003        1004        1005        1006        1007        1008        1009        1010
         1011        1012        1013        1014        1015        1016        1017        1018        1019        1020
         1021        1022        1023        1024        1025        1026        1027        1028        1029        1030
         1031        1032        1033        1034        1035        1036        1037        1038        1039        1040
         1041        1042        1043        1044        1045        1046        1047        1048        1049        1050
         1051        1052        1053        1054        1055        1056        1057        1058        1059        1060
         1061        1062        1063        1064        1065        1066        1067        1068        1069        1070
         1071        1072        1073        1074        1075        1076        1077        1078        1079        1080
         1081        1082        1083        1084        1085        1086        1087        1088        1089        1090
         1091        1092        1093        1094        1095        1096        1097        1098        1099        1100
         1101        1102        1103        1104        1105        1106        1107        1108        1109        1110
         1111        1112        1113        1114        1115        1116        1117        1118        1119        1120
         1121        1122        1123        1124        1125        1126        1127        1128        1129        1130
         1131        1132        1133        1134        1135        1136        1137        1138        1139        1140
         1141        1142        1143        1144        1145        1146        1147        1148        1149        1150
         1151        1152        1153        1154        1155        1156        1157        1158        1159        1160
         1161        1162        1163        1164        1165        1166        1167        1168        1169        1170
         1171        1172        1173        1174        1175        1176        1177        1178        1179        1180
         1181        1182        1183        1184        1185        1186        1187        1188        1189        1190
         1191        1192        1193        1194        1195        1196        1197        1198        1199        1200
         1201        1202        1203        1204        1205        1206        1207        1208        1209        1210
         1211        1212        1213        1214        1215        1216        1217        1218        1219        1220
         1221        1222        1223        1224        1225        1226        1227        1228        1229        1230
         1231        1232        1233        1234        1235        1236        1237        1238        1239        1240
         1241        1242        1243        1244        1245        1246        1247        1248        1249        1250
         1251        1252        1253        1254        1255        1256        1257        1258        1259        1260
         1261        1262        1263        1264        1265        1266        1267        1268        1269        1270
         1271        1272        1273        1274        1275        1276        1277        1278        1279        1280
         1281        1282        1283        1284        1285        1286        1287        1288        1289        1290
         1291        1292        1293        1294        1295        1296        1297        1298        1299        1300
         1301        1302        1303        1304        1305        1306        1307        1308        1309        1310
         1311        1312        1313        1314        1315        1316        1317        1318        1319        1320
         1321        1322        1323        1324        1325        1326        1327        1328        1329        1330
         1331        1332        1333        1334        1335        1336        1337        1338        1339        1340
         1341        1342        1343        1344        1345        1346        1347        1348        1349        1350
         1351        1352        1353        1354        1355        1356        1357        1358        1359        1360
         1361        1362        1363        1364        1365        1366        1367        1368        1369        1370
         1371        1372        1373        1374        1375        1376        1377        1378        1379        1380
         1381        1382        1383        1384        1385        1386        1387        1388        1389        1390
         1391        1392        1393        1394        1395        1396        1397        1398        1399        1400
         1401        1402        1403        1404        1405        1406        1407        1408        1409        1410
         1411        1412        1413        1414        1415        1416        1417        1418        1419        1420
         1421        1422        1423        1424        1425        1426        1427        1428        1429        1430
         1431        1432        1433        1434        1435        1436        1437        1438        1439        1440
         1441        1442        1443        1444        1445        1446        1447        1448        1449        1450
         1451        1452        1453        1454        1455        1456        1457        1458        1459        1460
         1461        1462        1463        1464        1465        1466        1467        1468        1469        1470
         1471        1472        1473        1474        1475        1476        1477        1478        1479        1480
         1481        1482        1483        1484        1485        1486        1487        1488        1489        1490
         1491        1492        1493        1494        1495        1496        1497        1498        1499        1500
         1501        1502        1503        1504        1505        1506        1507        1508        1509        1510
         1511        1512        1513        1514        1515        1516        1517        1518        1519        1520
         1521        1522        1523        1524        1525        1526        1527        1528        1529        1530
         1531        1532        1533        1534        1535        1536        1537        1538        1539        1540
         1541        1542        1543        1544        1545        1546        1547        1548        1549        1550
         1551        1552        1553        1554        1555        1556        1557        1558        1559        1560
         1561        1562        1563        1564        1565        1566        1567        1568        1569        1570
         1571        1572        1573        1574        1575        1576        1577        1578        1579        1580
         1581        1582        1583        1584        1585        1586        1587        1588        1589        1590
         1591        1592        1593        1594        1595        1596        1597        1598        1599        1600
         1601        1602        1603        1604        1605        1606        1607        1608        1609        1610
         1611        1612        1613        1614        1615        1616        1617        1618        1619        1620
         1621        1622        1623        1624        1625        1626        1627        1628        1629        1630
         1631        1632        1633        1634        1635        1636        1637        1638        1639        1640
         1641        1642        1643        1644        1645        1646        1647        1648        1649        1650
         1651        1652        1653        1654        1655        1656        1657        1658        1659        1660
         1661        1662        1663        1664        1665        1666        1667        1668        1669        1670
         1671        1672        1673        1674        1675        1676        1677        1678        1679        1680
         1681        1682        1683        1684        1685        1686        1687        1688        1689        1690
         1691        1692        1693        1694        1695        1696        1697        1698        1699        1700
         1701        1702        1703        1704        1705        1706        1707        1708        1709        1710
         1711        1712        1713        1714        1715        1716        1717        1718        1719        1720
         1721        1722        1723        1724        1725        1726        1727        1728        1729        1730
         1731        1732        1733        1734        1735        1736        1737        1738        1739        1740
         1741        1742        1743        1744        1745        1746        1747        1748        1749        1750
         1751        1752        1753        1754        1755        1756        1757        1758        1759        1760
         1761        1762        1763        1764        1765        1766        1767        1768        1769        1770
         1771        1772        1773        1774        1775        1776        1777        1778        1779        1780
         1781        1782        1783        1784        1785        1786        1787        1788        1789        1790
         1791        1792        1793        1794        1795        1796        1797        1798        1799        1800
         1801        1802        1803        1804        1805        1806        1807        1808        1809        1810
         1811        1812        1813        1814        1815        1816        1817        1818        1819        1820
         1821        1822        1823        1824        1825        1826        1827        1828        1829        1830
         1831        1832        1833        1834        1835        1836        1837        1838        1839        1840
         1841        1842        1843        1844        1845        1846        1847        1848        1849        1850
         1851        1852        1853        1854        1855        1856        1857        1858        1859        1860
         1861        1862        1863        1864        1865        1866        1867        1868        1869        1870
         1871        1872        1873        1874        1875        1876        1877        1878        1879        1880
         1881        1882        1883        1884        1885        1886        1887        1888        1889        1890
         1891        1892        1893        1894        1895        1896        1897        1898        1899        1900
         1901        1902        1903        1904        1905        1906        1907        1908        1909        1910
         1911        1912        1913        1914        1915        1916        1917        1918        1919        1920
         1921        1922        1923        1924        1925        1926        1927        1928        1929        1930
         1931        1932        1933        1934        1935        1936        1937        1938        1939        1940
         1941        1942        1943        1944        1945        1946        1947        1948        1949        1950
         1951        1952        1953        1954        1955        1956        1957        1958        1959        1960
         1961        1962        1963        1964        1965        1966        1967        1968        1969        1970
         1971        1972        1973        1974        1975        1976        1977        1978        1979        1980
         1981        1982        1983        1984        1985        1986        1987        1988        1989        1990
         1991        1992        1993        1994        1995        1996        1997        1998        1999        2000
         2001        2002        2003        2004        2005        2006        2007        2008        2009        2010
         2011        2012        2013        2014        2015        2016        2017        2018        2019        2020
         2021        2022        2023        2024        2025        2026        2027        2028        2029        2030
         2031        2032        2033        2034        2035        2036        2037        2038        2039        2040
         2041        2042        2043        2044        2045        2046        2047        2048        2049        2050
         2051        2052        2053        2054        2055        2056        2057        2058        2059        2060
         2061        2062        2063        2064        2065        2066        2067        2068        2069        2070
         2071        2072        2073        2074        2075        2076        2077        2078        2079        2080
         2081        2082        2083        2084        2085        2086        2087        2088        2089        2090
         2091        2092        2093        2094        2095        2096        2097        2098        2099        2100
         2101        2102        2103        2104        2105        2106        2107        2108        2109        2110
         2111        2112        2113        2114        2115        2116        2117        2118        2119        2120
         2121        2122        2123        2124        2125        2126        2127        2128        2129        2130
         2131        2132        2133        2134        2135        2136        2137        2138        2139        2140
         2141        2142        2143        2144        2145        2146        2147        2148        2149        2150
         2151        2152        2153        2154        2155        2156        2157        2158        2159        2160
         2161        2162        2163        2164        2165        2166        2167        2168        2169        2170
         2171        2172        2173        2174        2175        2176        2177        2178        2179        2180
         2181        2182        2183        2184        2185        2186        2187        2188        2189        2190
         2191        2192        2193        2194        2195        2196        2197        2198        2199        2200
         2201        2202        2203        2204        2205        2206        2207        2208        2209        2210
         2211        2212        2213        2214        2215        2216        2217        2218        2219        2220
         2221        2222        2223        2224        2225        2226        2227        2228        2229        2230
         2231        2232        2233        2234        2235        2236        2237        2238        2239        2240
         2241        2242        2243        2244        2245        2246        2247        2248        2249        2250
         2251        2252        2253        2254        2255        2256        2257        2258        2259        2260
         2261        2262        2263        2264        2265        2266        2267        2268        2269        2270
         2271        2272        2273        2274        2275        2276        2277        2278        2279        2280
         2281        2282        2283        2284        2285        2286        2287        2288        2289        2290
         2291        2292        2293        2294        2295        2296        2297        2298        2299        2300
         2301        2302        2303        2304        2305        2306        2307        2308        2309        2310
         2311        2312        2313        2314        2315        2316        2317        2318        2319        2320
         2321        2322        2323        2324        2325        2326        2327        2328        2329        2330
         2331        2332        2333        2334        2335        2336        2337        2338        2339        2340
         2341        2342        2343        2344        2345        2346        2347        2348        2349        2350
         2351        2352        2353        2354        2355        2356        2357        2358        2359        2360
         2361        2362        2363        2364        2365        2366        2367        2368        2369        2370
         2371        2372        2373        2374        2375        2376        2377        2378        2379        2380
         2381        2382        2383        2384        2385        2386        2387        2388        2389        2390
         2391        2392        2393        2394        2395        2396        2397        2398        2399        2400
         2401        2402        2403        2404        2405        2406        2407        2408        2409        2410
         2411        2412        2413        2414        2415        2416        2417        2418        2419        2420
         2421        2422        2423        2424        2425        2426        2427        2428        2429        2430
         2431        2432        2433        2434        2435        2436        2437        2438        2439        2440
         2441        2442        2443        2444        2445        2446        2447        2448        2449        2450
         2451        2452        2453        2454        2455        2456        2457        2458        2459        2460
         2461        2462        2463        2464        2465        2466        2467        2468        2469        2470
         2471        2472        2473        2474        2475        2476        2477        2478        2479        2480
         2481        2482        2483        2484        2485        2486        2487        2488        2489        2490
         2491        2492        2493        2494        2495        2496        2497        2498        2499        2500
         2501        2502        2503        2504        2505        2506        2507        2508        2509        2510
         2511        2512        2513        2514        2515        2516        2517        2518        2519        2520
         2521        2522        2523        2524        2525        2526        2527        2528        2529        2530
         2531        2532        2533        2534        2535        2536        2537        2538        2539        2540
         2541        2542        2543        2544        2545        2546        2547        2548        2549        2550
         2551        2552        2553        2554        2555        2556        2557        2558        2559        2560
         2561        2562        2563        2564        2565        2566        2567        2568        2569        2570
         2571        2572        2573        2574        2575        2576        2577        2578        2579        2580
         2581        2582        2583        2584        2585        2586        2587        2588        2589        2590
         2591        2592        2593        2594        2595        2596        2597        2598        2599        2600
         2601        2602        2603        2604        2605        2606        2607        2608        2609        2610
         2611        2612        2613        2614        2615        2616        2617        2618        2619        2620
         2621        2622        2623        2624        2625        2626        2627        2628        2629        2630
         2631        2632        2633        2634        2635        2636        2637        2638        2639        2640
         2641        2642        2643        2644        2645        2646        2647        2648        2649        2650
         2651        2652        2653        2654        2655        2656        2657        2658        2659        2660
         2661        2662        2663        2664        2665        2666        2667        2668        2669        2670
         2671        2672        2673        2674        2675        2676        2677        2678        2679        2680
         2681        2682        2683        2684        2685        2686        2687        2688        2689        2690
         2691        2692        2693        2694        2695        2696        2697        2698        2699        2700
         2701        2702        2703        2704        2705        2706        2707        2708        2709        2710
         2711        2712        2713        2714        2715        2716        2717        2718        2719        2720
         2721        2722        2723        2724        2725        2726        2727        2728        2729        2730
         2731        2732        2733        2734        2735        2736        2737        2738        2739        2740
         2741        2742        2743        2744        2745        2746        2747        2748        2749        2750
         2751        2752        2753        2754        2755        2756        2757        2758        2759        2760
         2761        2762        2763        2764        2765        2766        2767        2768        2769        2770
         2771        2772        2773        2774        2775        2776        2777        2778        2779        2780
         2781        2782        2783        2784        2785        2786        2787        2788        2789        2790
         2791        2792        2793        2794        2795        2796        2797        2798        2799        2800
         2801        2802        2803        2804        2805        2806        2807        2808        2809        2810
         2811        2812        2813        2814        2815        2816        2817        2818        2819        2820
         2821        2822        2823        2824        2825        2826        2827        2828        2829        2830
         2831        2832        2833        2834        2835        2836        2837        2838        2839        2840
         2841        2842        2843        2844        2845        2846        2847        2848        2849        2850
         2851        2852        2853        2854        2855        2856        2857        2858        2859        2860
         2861        2862        2863        2864        2865        2866        2867        2868        2869        2870
         2871        2872        2873        2874        2875        2876        2877        2878        2879        2880
         2881        2882        2883        2884        2885        2886        2887        2888        2889        2890
         2891        2892        2893        2894        2895        2896        2897        2898        2899        2900
         2901        2902        2903        2904        2905        2906        2907        2908        2909        2910
         2911        2912        2913        2914        2915        2916        2917        2918        2919        2920
         2921        2922        2923        2924        2925        2926        2927        2928        2929        2930
         2931        2932        2933        2934        2935        2936        2937        2938        2939        2940
         2941        2942        2943        2944        2945        2946        2947        2948        2949        2950
         2951        2952        2953        2954        2955        2956        2957        2958        2959        2960
         2961        2962        2963        2964        2965        2966        2967        2968        2969        2970
         2971        2972        2973        2974        2975        2976        2977        2978        2979        2980
         2981        2982        2983        2984        2985        2986        2987        2988        2989        2990
         2991        2992        2993        2994        2995        2996        2997        2998        2999        3000
         3001        3002        3003        3004        3005        3006        3007        3008        3009        3010
         3011        3012        3013        3014        3015        3016        3017        3018        3019        3020
         3021        3022        3023        3024        3025        3026        3027        3028        3029        3030
         3031        3032        3033        3034        3035        3036        3037        3038        3039        3040
         3041        3042        3043        3044        3045        3046        3047        3048        3049        3050
         3051        3052        3053        3054        3055        3056        3057        3058        3059        3060
         3061        3062        3063        3064        3065        3066        3067        3068        3069        3070
         3071        3072        3073        3074        3075        3076        3077        3078        3079        3080
         3081        3082        3083        3084        3085        3086        3087        3088        3089        3090
         3091        3092        3093        3094        3095        3096        3097        3098        3099        3100
         3101        3102        3103        3104        3105        3106        3107        3108        3109        3110
         3111        3112        3113        3114        3115        3116        3117        3118        3119        3120
         3121        3122        3123        3124        3125        3126        3127        3128        3129        3130
         3131        3132        3133        3134        3135        3136        3137        3138        3139        3140
         3141        3142        3143        3144        3145        3146        3147        3148        3149        3150
         3151        3152        3153        3154        3155        3156        3157        3158        3159        3160
         3161        3162        3163        3164        3165        3166        3167        3168        3169        3170
         3171        3172        3173        3174        3175        3176        3177        3178        3179        3180
         3181        3182        3183        3184        3185        3186        3187        3188        3189        3190
         3191        3192        3193        3194        3195        3196        3197        3198        3199        3200
         3201        3202        3203        3204        3205        3206        3207        3208        3209        3210
         3211        3212        3213        3214        3215        3216        3217        3218        3219        3220
         3221        3222        3223        3224        3225        3226        3227        3228        3229        3230
         3231        3232        3233        3234        3235        3236        3237        3238        3239        3240
         3241        3242        3243        3244        3245        3246        3247        3248        3249        3250
         3251        3252        3253        3254        3255        3256        3257        3258        3259        3260
         3261        3262        3263        3264        3265        3266        3267        3268        3269        3270
         3271        3272        3273        3274        3275        3276        3277        3278        3279        3280
         3281        3282        3283        3284        3285        3286        3287        3288        3289        3290
         3291        3292        3293        3294        3295        3296        3297        3298        3299        3300
         3301        3302        3303        3304        3305        3306        3307        3308        3309        3310
         3311        3312        3313        3314        3315        3316        3317        3318        3319        3320
         3321        3322        3323        3324        3325        3326        3327        3328        3329        3330
         3331        3332        3333        3334        3335        3336        3337        3338        3339        3340
         3341        3342        3343        3344        3345        3346        3347        3348        3349        3350
         3351        3352        3353        3354        3355        3356        3357        3358        3359        3360
         3361        3362        3363        3364        3365        3366        3367        3368        3369        3370
         3371        3372        3373        3374        3375        3376        3377        3378        3379        3380
         3381        3382        3383        3384        3385        3386        3387        3388        3389        3390
         3391        3392        3393        3394        3395        3396        3397        3398        3399        3400
         3401        3402        3403        3404        3405        3406        3407        3408        3409        3410
         3411        3412        3413        3414        3415        3416        3417        3418        3419        3420
         3421        3422        3423        3424        3425        3426        3427        3428        3429        3430
         3431        3432        3433        3434        3435        3436        3437        3438        3439        3440
         3441        3442        3443        3444        3445        3446        3447        3448        3449        3450
         3451        3452        3453        3454        3455        3456        3457        3458        3459        3460
         3461        3462        3463        3464        3465        3466        3467        3468        3469        3470
         3471        3472        3473        3474        3475        3476        3477        3478        3479        3480
         3481        3482        3483        3484        3485        3486        3487        3488        3489        3490
         3491        3492        3493        3494        3495        3496        3497        3498        3499        3500
         3501        3502        3503        3504        3505        3506        3507        3508        3509        3510
         3511        3512        3513        3514        3515        3516        3517        3518        3519        3520
         3521        3522        3523        3524        3525        3526        3527        3528        3529        3530
         3531        3532        3533        3534        3535        3536        3537        3538        3539        3540
         3541        3542        3543        3544        3545        3546        3547        3548        3549        3550
         3551        3552        3553        3554        3555        3556        3557        3558        3559        3560
         3561        3562        3563        3564        3565        3566        3567        3568        3569        3570
         3571        3572        3573        3574        3575        3576        3577        3578        3579        3580
         3581        3582        3583        3584        3585        3586        3587        3588        3589        3590
         3591        3592        3593        3594        3595        3596        3597        3598        3599        3600
         3601        3602        3603        3604        3605        3606        3607        3608        3609        3610
         3611        3612        3613        3614        3615        3616        3617        3618        3619        3620
         3621        3622        3623        3624        3625        3626        3627        3628        3629        3630
         3631        3632        3633        3634        3635        3636        3637        3638        3639        3640
         3641        3642        3643        3644        3645        3646        3647        3648        3649        3650
         3651        3652        3653        3654        3655        3656        3657        3658        3659        3660
         3661        3662        3663        3664        3665        3666        3667        3668        3669        3670
         3671        3672        3673        3674        3675        3676        3677        3678        3679        3680
         3681        3682        3683        3684        3685        3686        3687        3688        3689        3690
         3691        3692        3693        3694        3695        3696        3697        3698        3699        3700
         3701        3702        3703        3704        3705        3706        3707        3708        3709        3710
         3711        3712        3713        3714        3715        3716        3717        3718        3719        3720
         3721        3722        3723        3724        3725        3726        3727        3728        3729        3730
         3731        3732        3733        3734        3735        3736        3737        3738        3739        3740
         3741        3742        3743        3744        3745        3746        3747        3748        3749        3750
         3751        3752        3753        3754        3755        3756        3757        3758        3759        3760
         3761        3762        3763        3764        3765        3766        3767        3768        3769        3770
         3771        3772        3773        3774        3775        3776        3777        3778        3779        3780
         3781        3782        3783        3784        3785        3786        3787        3788        3789        3790
         3791        3792        3793        3794        3795        3796        3797        3798        3799        3800
         3801        3802        3803        3804        3805        3806        3807        3808        3809        3810
         3811        3812        3813        3814        3815        3816        3817        3818        3819        3820
         3821        3822        3823        3824        3825        3826        3827        3828        3829        3830
         3831        3832        3833        3834        3835        3836        3837        3838        3839        3840
         3841        3842        3843        3844        3845        3846        3847        3848        3849        3850
         3851        3852        3853        3854        3855        3856        3857        3858        3859        3860
         3861        3862        3863        3864        3865        3866        3867        3868        3869        3870
         3871        3872        3873        3874        3875        3876        3877        3878        3879        3880
         3881        3882        3883        3884        3885        3886        3887        3888        3889        3890
         3891        3892        3893        3894        3895        3896        3897        3898        3899        3900
         3901        3902        3903        3904        3905        3906        3907        3908        3909        3910
         3911        3912        3913        3914        3915        3916        3917        3918        3919        3920
         3921        3922        3923        3924        3925        3926        3927        3928        3929        3930
         3931        3932        3933        3934        3935        3936        3937        3938        3939        3940
         3941        3942        3943        3944        3945        3946        3947        3948        3949        3950
         3951        3952        3953        3954        3955        3956        3957        3958        3959        3960
         3961        3962        3963        3964        3965        3966        3967        3968        3969        3970
         3971        3972        3973        3974        3975        3976        3977        3978        3979        3980
         3981        3982        3983        3984        3985        3986        3987        3988        3989        3990
         3991        3992        3993        3994        3995        3996        3997        3998        3999        4000
         4001        4002        4003        4004        4005        4006        4007        4008        4009        4010
         4011        4012        4013        4014        4015        4016        4017        4018        4019        4020
         4021        4022        4023        4024        4025        4026        4027        4028        4029        4030
         4031        4032        4033        4034        4035        4036        4037        4038        4039        4040
         4041        4042        4043        4044        4045        4046        4047        4048        4049        4050
         4051        4052        4053        4054        4055        4056        4057        4058        4059        4060
         4061        4062        4063        4064        4065        4066        4067        4068        4069        4070
         4071        4072        4073        4074        4075        4076        4077        4078        4079        4080
         4081        4082        4083        4084        4085        4086        4087        4088        4089        4090
         4091        4092        4093        4094        4095        4096        4097        4098        4099        4100
         4101        4102        4103        4104        4105        4106        4107        4108        4109        4110
         4111        4112        4113        4114        4115        4116        4117        4118        4119        4120
         4121        4122        4123        4124        4125        4126        4127        4128        4129        4130
         4131        4132        4133        4134        4135        4136        4137        4138        4139        4140
         4141        4142        4143        4144        4145        4146        4147        4148        4149        4150
         4151        4152        4153        4154        4155        4156        4157        4158        4159        4160
         4161        4162        4163        4164        4165        4166        4167        4168        4169        4170
         4171        4172        4173        4174        4175        4176        4177        4178        4179        4180
         4181        4182        4183        4184        4185        4186        4187        4188        4189        4190
         4191        4192        4193        4194        4195        4196        4197        4198        4199        4200
         4201        4202        4203        4204        4205        4206        4207        4208        4209        4210
         4211        4212        4213        4214        4215        4216        4217        4218        4219        4220
         4221        4222        4223        4224        4225        4226        4227        4228        4229        4230
         4231        4232        4233        4234        4235        4236        4237        4238        4239        4240
         4241        4242        4243        4244        4245        4246        4247        4248        4249        4250
         4251        4252        4253        4254        4255        4256        4257        4258        4259        4260
         4261        4262        4263        4264        4265        4266        4267        4268        4269        4270
         4271        4272        4273        4274        4275        4276        4277        4278        4279        4280
         4281        4282        4283        4284        4285        4286        4287        4288        4289        4290
         4291        4292        4293        4294        4295        4296        4297        4298        4299        4300
         4301        4302        4303        4304        4305        4306        4307        4308        4309        4310
         4311        4312        4313        4314        4315        4316        4317        4318        4319        4320
         4321        4322        4323        4324        4325        4326        4327        4328        4329        4330
         4331        4332        4333        4334        4335        4336        4337        4338        4339        4340
         4341        4342        4343        4344        4345        4346        4347        4348        4349        4350
         4351        4352        4353        4354        4355        4356        4357        4358        4359        4360
         4361        4362        4363        4364        4365        4366        4367        4368        4369        4370
         4371        4372        4373        4374        4375        4376        4377        4378        4379        4380
         4381        4382        4383        4384        4385        4386        4387        4388        4389        4390
         4391        4392        4393        4394        4395        4396        4397        4398        4399        4400
         4401        4402        4403        4404        4405        4406        4407        4408        4409        4410
         4411        4412        4413        4414        4415        4416        4417        4418        4419        4420
         4421        4422        4423        4424        4425        4426        4427        4428        4429        4430
         4431        4432        4433        4434        4435        4436        4437        4438        4439        4440
         4441        4442        4443        4444        4445        4446        4447        4448        4449        4450
         4451        4452        4453        4454        4455        4456        4457        4458        4459        4460
         4461        4462        4463        4464        4465        4466        4467        4468        4469        4470
         4471        4472        4473        4474        4475        4476        4477        4478        4479        4480
         4481        4482        4483        4484        4485        4486        4487        4488        4489        4490
         4491        4492        4493        4494        4495        4496        4497        4498        4499        4500
         4501        4502        4503        4504        4505        4506        4507        4508        4509        4510
         4511        4512        4513        4514        4515        4516        4517        4518        4519        4520
         4521        4522        4523        4524        4525        4526        4527        4528        4529        4530
         4531        4532        4533        4534        4535        4536        4537        4538        4539        4540
         4541        4542        4543        4544        4545        4546        4547        4548        4549        4550
         4551        4552        4553        4554        4555        4556        4557        4558        4559        4560
         4561        4562        4563        4564        4565        4566        4567        4568        4569        4570
         4571        4572        4573        4574        4575        4576        4577        4578        4579        4580
         4581        4582        4583        4584        4585        4586        4587        4588        4589        4590
         4591        4592        4593        4594        4595        4596        4597        4598        4599        4600
         4601        4602        4603        4604        4605        4606        4607        4608        4609        4610
         4611        4612        4613        4614        4615        4616        4617        4618        4619        4620
         4621        4622        4623        4624        4625        4626        4627        4628        4629        4630
         4631        4632        4633        4634        4635        4636        4637        4638        4639        4640
         4641        4642        4643        4644        4645        4646        4647        4648        4649        4650
         4651        4652        4653        4654        4655        4656        4657        4658        4659        4660
         4661        4662        4663        4664        4665        4666        4667        4668        4669        4670
         4671        4672        4673        4674        4675        4676        4677        4678        4679        4680
         4681        4682        4683        4684        4685        4686        4687        4688        4689        4690
         4691        4692        4693        4694        4695        4696        4697        4698        4699        4700
         4701        4702        4703        4704        4705        4706        4707        4708        4709        4710
         4711        4712        4713        4714        4715        4716        4717        4718        4719        4720
         4721        4722        4723        4724        4725        4726        4727        4728        4729        4730
         4731        4732        4733        4734        4735        4736        4737        4738        4739        4740
         4741        4742        4743        4744        4745        4746        4747        4748        4749        4750
         4751        4752        4753        4754        4755        4756        4757        4758        4759        4760
         4761        4762        4763        4764        4765        4766        4767        4768        4769        4770
         4771        4772        4773        4774        4775        4776        4777        4778        4779        4780
         4781        4782        4783        4784        4785        4786        4787        4788        4789        4790
         4791        4792        4793        4794        4795        4796        4797        4798        4799        4800
         4801        4802        4803        4804        4805        4806        4807        4808        4809        4810
         4811        4812        4813        4814        4815        4816        4817        4818        4819        4820
         4821        4822        4823        4824        4825        4826        4827        4828        4829        4830
         4831        4832        4833        4834        4835        4836        4837        4838        4839        4840
         4841        4842        4843        4844        4845        4846        4847        4848        4849        4850
         4851        4852        4853        4854        4855        4856        4857        4858        4859        4860
         4861        4862        4863        4864        4865        4866        4867        4868        4869        4870
         4871        4872        4873        4874        4875        4876        4877        4878        4879        4880
         4881        4882        4883        4884        4885        4886        4887        4888        4889        4890
         4891        4892        4893        4894        4895        4896        4897        4898        4899        4900
         4901        4902        4903        4904        4905        4906        4907        4908        4909        4910
         4911        4912        4913        4914        4915        4916        4917        4918        4919        4920
         4921        4922        4923        4924        4925        4926        4927        4928        4929        4930
         4931        4932        4933        4934        4935        4936        4937        4938        4939        4940
         4941        4942        4943        4944        4945        4946        4947        4948        4949        4950
         4951        4952        4953        4954        4955        4956        4957        4958        4959        4960
         4961        4962        4963        4964        4965        4966        4967        4968        4969        4970
         4971        4972        4973        4974        4975        4976        4977        4978        4979        4980
         4981        4982        4983        4984        4985        4986        4987        4988        4989        4990
         4991        4992        4993        4994        4995        4996        4997        4998        4999        5000
         5001        5002        5003        5004        5005        5006        5007        5008        5009        5010
         5011        5012        5013        5014        5015        5016        5017        5018        5019        5020
         5021        5022        5023        5024        5025        5026        5027        5028        5029        5030
         5031        5032        5033        5034        5035        5036        5037        5038        5039        5040
         5041        5042        5043        5044        5045        5046        5047        5048        5049        5050
         5051        5052        5053        5054        5055        5056        5057        5058        5059        5060
         5061        5062        5063        5064        5065        5066        5067        5068        5069        5070
[...]
        11.06       11.05       10.99       10.98       11.03       11.01       11.11       11.07       10.96       10.92    
        11.03       10.99       11.18       11.14       11.26       11.22       11.10       11.06       11.17       11.13    
        10.88       10.84       10.95       10.91       10.80       10.76       10.87       10.83       11.02       10.98    
        11.09       11.05       10.94       10.90       11.01       10.97       11.33       11.29       11.39       11.36    
        11.24       11.20       11.31       11.28       11.48       11.40       11.16       11.12       11.23       11.20    
        11.08       11.04       11.15       11.11       11.32       11.24       10.16       10.14       10.19       10.17    
        10.12       10.10       10.15       10.14       10.22       10.21       10.26       10.24       10.19       10.17    
        10.22       10.20       10.09       10.07       10.12       10.10       10.05       10.03       10.08       10.06    
        10.15       10.13       10.19       10.17       10.12       10.10       10.15       10.13       10.29       10.28    
        10.33       10.31       10.26       10.24       10.29       10.27       10.36       10.34       10.40       10.38    
        10.33       10.31       10.36       10.34       10.22       10.20       10.25       10.24       10.18       10.16    
        10.22       10.20       10.29       10.27       10.32       10.30       10.25       10.23       10.28       10.27    
        10.01       9.994       10.05       10.03       9.976       9.957       10.01       9.989       10.08       10.06    
        10.11       10.09       10.04       10.02       10.07       10.05       9.937       9.918       9.970       9.950    
        9.898       9.878       9.931       9.911       10.00       9.983       10.04       10.02       9.963       9.943    
        9.996       9.976       10.15       10.13       10.18       10.16       10.11       10.09       10.14       10.12    
        10.21       10.19       10.25       10.23       10.17       10.15       10.21       10.19       10.07       10.05    
        10.10       10.08       10.03       10.01       10.06       10.04       10.13       10.12       10.17       10.15    
        10.10       10.08       10.13       10.11       10.43       10.41       10.47       10.45       10.40       10.38    
        10.43       10.41       10.50       10.48       10.54       10.52       10.46       10.45       10.50       10.48    
        10.36       10.34       10.39       10.37       10.32       10.30       10.35       10.33       10.43       10.41    
        10.46       10.44       10.39       10.58       10.54       10.65       10.61       10.50       10.46       10.57    
        10.53       10.28       10.26       10.31       10.30       10.24       10.22       10.27       10.25       10.36    
        10.32       10.21       10.17       10.28       10.24       10.42       10.38       10.49       10.45       10.34    
        10.30       10.41       10.37       9.858       9.838       9.890       9.870       9.817       9.796       9.850    
        9.829       9.923       9.903       9.956       9.935       9.882       9.864       9.913       9.893       9.775    
        9.757       9.805       9.785       9.738       9.846       9.804       9.989       9.971       10.02      10.000    
        9.953       10.06       10.02       9.912       9.870       9.979       9.937       9.694       9.650       9.761    
        9.717       9.606       9.561       9.674       9.629       9.828       9.785       9.895       9.852       9.741    
        9.698       9.810       9.767       10.13       10.09       10.20       10.15       10.05       10.00       10.11    
        10.07       10.26       10.22       10.33       10.29       10.18       10.14       10.25       10.21       9.963    
        9.920       10.03       9.989       9.878       9.836       9.946       9.905       10.10       10.06       10.17    
        10.13       10.01       9.974       10.08       10.04       10.72       10.68       10.79       10.75       10.64    
        10.60       10.71       10.67       10.86       10.82       10.93       10.89       10.78       10.74       10.85    
        10.81       10.56       10.52       10.63       10.59       10.48       10.44       10.55       10.51       10.70    
        10.66       10.77       10.73       10.62       10.58       10.68       10.65       11.00       10.97       11.07    
        11.03       10.93       11.15       11.07       10.85       10.77       10.99       10.91       10.40       10.36    
        10.47       10.43       10.32       10.28       10.38       10.35       10.54       10.50       10.60       10.56    
        10.47       10.24       10.20       10.30       10.26       10.17       10.38       10.30       10.69       10.60    
        10.82       10.74       10.52       10.44       10.66       10.58       9.516       9.470       9.585       9.540    
        9.425       9.379       9.496       9.452       9.654       9.611       9.724       9.681       9.567       9.524    
        9.638       9.595       9.335       9.290       9.408       9.364       9.246       9.204       9.322       9.280    
        9.481       9.438       9.553       9.511       9.396       9.355       9.470       9.429       9.793       9.751    
        9.862       9.820       9.708       9.666       9.778       9.737       9.931       9.890       9.998       9.962    
        9.848       9.808       9.916       9.880       9.625       9.584       9.696       9.655       9.543       9.503    
        9.615       9.576       9.766       9.727       9.834       9.799       9.687       9.653       9.753       9.715    
        9.162       9.122       9.239       9.199       9.083       9.046       9.161       9.125       9.315       9.276    
        9.389       9.351       9.238       9.201       9.313       9.277       9.011       8.978       9.090       9.056    
        8.947       8.918       9.025       8.994       9.166       9.133       9.241       9.208       9.100       9.070    
        9.175       9.144       9.463       9.425       9.533       9.500       9.387       9.351       9.458       9.426    
        9.625       9.550       9.315       9.282       9.386       9.356       9.248       9.217       9.318       9.289    
        9.479       9.410       10.08       10.00       10.22       10.14       9.921       9.841       10.06       9.981    
        10.36       10.28       10.49       10.42       10.20       10.12       10.33       10.26       9.765       9.691    
        9.904       9.829       9.619       9.550       9.757       9.687       10.04       9.966       10.17       10.10    
        9.891       9.822       10.02       9.956       8.890       8.864       8.966       8.938       8.840       8.819    
        8.911       8.882       9.040       9.011       9.113       9.084       8.983       8.961       9.051       9.023    
        8.814       8.768       8.952       8.901       9.186       9.160       9.252       9.221       9.144       9.344    
        9.282       9.088       9.034       9.222       9.164       8.723       8.683       8.850       8.795       8.668    
        8.981       8.935       9.107       9.046       8.911       9.483       9.418       9.619       9.553       9.354    
        9.295       9.481       9.426       9.752       9.694       9.875       9.808       9.647       9.236       9.185    
        9.355       9.296       9.153       9.516       9.392       8.573       8.479       8.806       8.700       8.384    
        8.295       8.593       8.476       9.038       8.925       9.270       9.149       8.810       8.709       9.013    
        8.898       8.224       7.986       8.623       8.374       7.746       7.479       8.119       7.854       7.194    
        6.900       7.582       7.309       6.608       6.351       7.048       6.814       6.153       6.027       6.621    
        6.479       5.962       5.950       6.382       6.323       5.949       5.948       6.286       6.267       20.13    
        18.34       19.23       18.75       17.33       17.05       18.11       17.64       16.70       16.28       17.21    
        16.77       15.81       15.31       16.31       15.84       14.81       14.31       14.05       14.54       14.36    
        15.37       14.91       13.81       13.59       14.14       13.92       13.39       13.23       13.73       13.55    
        14.46       14.24       14.70       14.54       14.04       13.87       14.34       14.18       13.07       12.93    
        13.39       13.24       12.80       12.64       12.56       12.75       12.70       13.10       12.95       13.70    
        13.55       13.99       13.85       13.39       13.24       13.69       13.53       12.49       12.42       12.63    
        12.57       12.35       12.28       12.49       12.42       12.81       12.64       12.56       12.75       12.70    
        12.21       12.13       12.35       12.28       12.06       11.99       12.20       12.13       12.49       12.42    
        12.62       12.56       12.34       12.28       12.48       12.42       13.09       12.94       13.37       13.23    
        12.80       12.66       13.08       12.94       11.92       11.85       12.06       12.00       11.78       11.71    
        11.93       11.85       12.20       12.14       12.34       12.28       12.07       12.00       12.20       12.14    
        11.63       11.54       11.77       11.69       11.46       11.38       11.60       11.52       11.91       11.83    
        12.05       11.98       11.74       11.66       11.88       11.81       12.52       12.39       12.80       12.66    
        12.24       12.06       12.53       12.35       11.29       11.21       11.44       11.35       11.13       11.04    
        11.26       11.19       11.58       11.50       11.71       11.63       11.43       10.96       10.88       11.09    
        11.02       10.80       10.72       10.92       10.84       11.26       11.09       11.88       11.70       12.16    
        11.98       11.53       11.35       11.79       11.62       10.66       10.49       10.92       10.76       10.34    
        10.18       10.60       10.44       11.18       11.02       11.45       11.28       10.85       10.70       11.09    
        10.95       10.04       9.898       10.29       10.15       9.762       9.630       10.00       9.866       10.54    
        10.39       10.77       10.64       10.24       10.12       10.46       10.32       9.501       9.389       9.714    
        9.587       9.286       9.994       9.713       9.028       8.767       9.437       9.162       8.503       8.236    
        8.889       8.618       7.969       7.707       8.351       8.092       7.459       7.234       7.847       7.622    
        7.040       6.884       7.422       7.252       6.762       6.672       7.111       6.997       6.606       6.565    
        6.901       6.822       19.93       19.30       20.41       19.81       18.72       18.21       19.25       18.73    
        17.73       17.28       18.24       17.78       16.82       16.37       17.33       16.89       15.92       15.48    
        16.45       16.04       15.07       14.70       15.64       15.26       14.35       13.98       13.81       14.21    
        14.09       14.91       14.57       13.65       13.50       13.92       13.79       13.35       13.21       13.62    
        13.49       14.26       13.96       13.07       12.93       13.33       13.21       12.79       12.62       13.04    
        12.89       13.67       13.35       12.44       12.25       12.69       12.52       12.06       11.88       12.30    
        12.14       12.99       12.60       11.70       11.55       11.94       11.77       11.39       12.22       11.87    
        11.06       10.74       11.52       11.19       10.43       10.14       10.86       10.55       9.843       9.556    
        10.24       9.945       9.273       8.995       9.651       9.364       8.723       8.462       9.086       8.818    
        8.214       7.983       8.562       8.323       7.775       7.591       8.102       7.903       7.434       7.301    
        7.732       7.597       7.178       7.000       7.508       20.87       20.29       21.00       20.74       19.73    
        19.21       20.17       19.67       18.73       18.27       19.19       18.74       17.82       17.39       18.31    
        17.89       16.97       16.57       17.48       17.09       16.18       15.81       16.70       16.33       15.45    
        15.11       15.98       15.64       14.79       14.48       15.31       14.99       14.18       13.84       14.69    
        14.32       13.48       13.09       13.95       13.57       12.70       12.33       13.17       12.78       11.97    
        11.62       12.41       12.05       11.29       10.96       11.70       11.36       10.64       10.33       11.02    
        10.70       10.02       9.725       10.38       10.08       9.438       9.160       9.778       9.490       8.895    
        8.643       9.214       8.948       8.406       8.187       8.692       8.444       7.994       7.844       8.211    
        8.038       7.749       7.894       20.99       21.27       20.55       20.08       20.97       20.48       19.63    
        19.20       20.05       19.64       18.78       18.37       19.24       18.85       17.98       17.59       18.46    
        18.08       17.21       16.85       17.71       17.35       16.49       16.15       16.99       16.64       15.81    
        15.50       16.30       15.97       15.16       14.78       15.60       15.22       14.40       14.03       14.85    
        14.47       13.62       13.22       14.05       13.64       12.84       12.46       13.25       12.87       12.10    
        11.75       12.49       12.13       11.40       11.07       11.77       11.42       10.74       10.42       11.08    
        10.75       10.11       9.809       10.43       10.11       9.521       9.242       9.818       9.532       8.968    
        8.688       9.251       8.969       8.368       8.203       21.16       20.83       21.33       21.24       20.44    
        20.06       20.84       20.48       19.68       19.31       20.13       19.77       18.94       18.57       19.42    
        19.05       18.20       17.84       18.69       18.33       17.48       17.13       17.97       17.61       16.79    
        16.43       17.25       16.86       16.04       15.66       16.48       16.10       15.29       14.91       15.74    
        15.36       14.48       14.05       14.90       14.46       13.65       13.26       14.05       13.64       12.87    
        12.50       13.25       12.86       12.13       11.77       12.48       12.11       11.42       11.07       11.75    
        11.39       10.73       10.41       11.03       10.67       10.10       9.816       10.37       10.09       9.534    
        21.35       21.19       20.89       21.37       21.29       20.58       20.24       21.06       20.72       19.89    
        19.54       20.39       20.02       19.17       18.81       19.66       19.29       18.45       18.08       18.93    
        18.53       17.70       17.30       18.12       17.72       16.91       16.53       17.32       16.94       16.16    
        15.74       16.55       16.12       15.29       14.85       15.68       15.23       14.43       14.01       14.80    
        14.38       13.61       13.21       13.97       13.56       12.83       12.44       13.16       12.77       12.07    
        11.71       12.40       12.04       11.32       10.87       11.68       10.62       21.27       21.18       20.91    
        20.51       21.12       20.97       20.14       19.77       20.61       20.21       19.37       18.95       19.79    
        19.36       18.54       18.13       18.94       18.53       17.73       17.31       18.10       17.65       16.88    
        16.46       17.22       16.79       16.03       15.58       16.37       15.92       15.15       14.73       15.49    
        15.08       14.32       13.90       14.66       14.25       13.48       13.06       13.81       13.29       12.71    
        12.37       13.00       21.19       21.09       20.63       21.21       21.01       20.20       19.77       20.61    
        20.16       19.35       18.90       19.73       19.25       18.44       17.99       18.77       18.31       17.54    
        17.11       17.86       17.42       16.69       16.25       16.99       16.56       15.82       15.42       16.14    
        15.75       15.02       14.62       15.37       14.99       14.21       21.20       21.06       20.54       21.15    
        20.89       20.06       19.57       20.36       19.86       19.08       18.62       19.38       18.91       18.16    
        17.72       18.45       18.01       17.29       16.86       17.59       17.15       16.42       16.06       16.64    
        16.35       15.71       21.06       21.29       20.63       20.14       20.95       20.42       19.66       19.19    
        19.93       19.45       18.73       18.28       19.00       18.49       17.90       17.53       18.20       21.05    
        20.65       21.16       20.94       20.20       19.66       20.57       19.33    

 HEAD WILL BE SAVED ON UNIT 1021 AT END OF TIME STEP    1, STRESS PERIOD    1


  VOLUME BUDGET FOR ENTIRE MODEL AT END OF TIME STEP    1, STRESS PERIOD   1
  ---------------------------------------------------------------------------------------------------

     CUMULATIVE VOLUME      L**3       RATES FOR THIS TIME STEP      L**3/T          PACKAGE NAME    
     ------------------                 ------------------------                     ----------------

           IN:                                      IN:
           ---                                      ---
                 WEL =           0.0000                   WEL =           0.0000     WEL_0           
                 DRN =           0.0000                   DRN =           0.0000     DRN_0           
                 RIV =           3.1181                   RIV =           1.5590     RIV_0           
                 GHB =          78.3291                   GHB =          39.1645     GHB_0           
                 RCH =           0.6611                   RCH =           0.3305     RCHA_0          

            TOTAL IN =          82.1082              TOTAL IN =          41.0541

          OUT:                                     OUT:
          ----                                     ----
                 WEL =           0.4153                   WEL =           0.2076     WEL_0           
                 DRN =           2.3328                   DRN =           1.1664     DRN_0           
                 RIV =          79.3843                   RIV =          39.6921     RIV_0           
                 GHB =           0.0000                   GHB =           0.0000     GHB_0           
                 RCH =           0.0000                   RCH =           0.0000     RCHA_0          

           TOTAL OUT =          82.1323             TOTAL OUT =          41.0662

            IN - OUT =      -2.4085E-02              IN - OUT =      -1.2043E-02

 PERCENT DISCREPANCY =          -0.03     PERCENT DISCREPANCY =          -0.03




         TIME SUMMARY AT END OF TIME STEP    1 IN STRESS PERIOD    1
                    SECONDS     MINUTES      HOURS       DAYS        YEARS
                    -----------------------------------------------------------
   TIME STEP LENGTH  2.0000     3.33333E-02 5.55556E-04 2.31481E-05 6.33762E-08
 STRESS PERIOD TIME  2.0000     3.33333E-02 5.55556E-04 2.31481E-05 6.33762E-08
         TOTAL TIME  2.0000     3.33333E-02 5.55556E-04 2.31481E-05 6.33762E-08


end timestep

