                                   MODFLOW 6
                U.S. GEOLOGICAL SURVEY MODULAR HYDROLOGIC MODEL
                          GROUNDWATER FLOW MODEL (GWF)
                            VERSION 6.2.2 07/30/2021

   MODFLOW 6 compiled Jul 31 2021 14:22:53 with IFORT compiler (ver. 19.10.3)

This software has been approved for release by the U.S. Geological 
Survey (USGS). Although the software has been subjected to rigorous 
review, the USGS reserves the right to update the software as needed 
pursuant to further analysis and review. No warranty, expressed or 
implied, is made by the USGS or the U.S. Government as to the 
functionality of the software and related material nor shall the 
fact of release constitute any such warranty. Furthermore, the 
software is released on condition that neither the USGS nor the U.S. 
Government shall be held liable for any damages resulting from its 
authorized or unauthorized use. Also refer to the USGS Water 
Resources Software User Rights Notice for complete use, copyright, 
and distribution information.


System command used to initiate simulation:
mf6

MODFLOW was compiled using uniform precision.

Real Variables
  KIND: 8
  TINY (smallest non-zero value):    2.225074-308
  HUGE (largest value):    1.797693+308
  PRECISION: 15
  BIT SIZE: 64

Integer Variables
  KIND: 4
  HUGE (largest value): 2147483647
  BIT SIZE: 32

Long Integer Variables
  KIND: 8
  HUGE (largest value): 9223372036854775807
  BIT SIZE: 64

Logical Variables
  KIND: 4
  BIT SIZE: 32
 

 OPENED ./ml.disv
 FILE TYPE:DISV6                  UNIT 1005   STATUS:OLD                 
 FORMAT:FORMATTED              ACCESS:SEQUENTIAL          
 ACTION:READ                


 OPENED ./ml.ic
 FILE TYPE:IC6                    UNIT 1006   STATUS:OLD                 
 FORMAT:FORMATTED              ACCESS:SEQUENTIAL          
 ACTION:READ                


 OPENED ./ml.npf
 FILE TYPE:NPF6                   UNIT 1007   STATUS:OLD                 
 FORMAT:FORMATTED              ACCESS:SEQUENTIAL          
 ACTION:READ                


 OPENED ./ml.ghb
 FILE TYPE:GHB6                   UNIT 1008   STATUS:OLD                 
 FORMAT:FORMATTED              ACCESS:SEQUENTIAL          
 ACTION:READ                


 OPENED ./ml.rcha
 FILE TYPE:RCH6                   UNIT 1009   STATUS:OLD                 
 FORMAT:FORMATTED              ACCESS:SEQUENTIAL          
 ACTION:READ                


 OPENED ./ml.obs
 FILE TYPE:OBS6                   UNIT 1010   STATUS:OLD                 
 FORMAT:FORMATTED              ACCESS:SEQUENTIAL          
 ACTION:READ                


 OPENED ./ml.oc
 FILE TYPE:OC6                    UNIT 1011   STATUS:OLD                 
 FORMAT:FORMATTED              ACCESS:SEQUENTIAL          
 ACTION:READ                


 OPENED ml.wel
 FILE TYPE:WEL6                   UNIT 1012   STATUS:OLD                 
 FORMAT:FORMATTED              ACCESS:SEQUENTIAL          
 ACTION:READ                


 OPENED ml.drn
 FILE TYPE:DRN6                   UNIT 1013   STATUS:OLD                 
 FORMAT:FORMATTED              ACCESS:SEQUENTIAL          
 ACTION:READ                


 OPENED ml.riv
 FILE TYPE:RIV6                   UNIT 1014   STATUS:OLD                 
 FORMAT:FORMATTED              ACCESS:SEQUENTIAL          
 ACTION:READ                


 DISV -- VERTEX GRID DISCRETIZATION PACKAGE, VERSION 1 : 12/23/2015 - INPUT READ FROM UNIT 1005


 # File generated by Flopy version 3.3.5 on 03/29/2022 at 18:29:07.

 PROCESSING DISCRETIZATION OPTIONS
    MODEL LENGTH UNIT IS METERS
    XORIGIN SPECIFIED AS     405575.681000000    
    YORIGIN SPECIFIED AS     6423306.54000000    
 END OF DISCRETIZATION OPTIONS

 PROCESSING DISCRETIZATION DIMENSIONS
   NLAY = 1
   NCPL = 26674
   NVERT = 27090
 END OF DISCRETIZATION DIMENSIONS

 PROCESSING GRIDDATA
 END PROCESSING GRIDDATA

 PROCESSING VERTICES
   SUCCESSFULLY READ 27090 (X,Y) COORDINATES
   MINIMUM X COORDINATE =     405575.681000000    
   MAXIMUM X COORDINATE =     413975.681000000    
   MINIMUM Y COORDINATE =     6423306.54000000    
   MAXIMUM Y COORDINATE =     6432506.54000000    
 END PROCESSING VERTICES

 PROCESSING CELL2D
   SUCCESSFULLY READ 26674 CELL2D INFORMATION ENTRIES
   MINIMUM X CELL CENTER =     405675.681000000    
   MAXIMUM X CELL CENTER =     413875.681000000    
   MINIMUM Y CELL CENTER =     6423406.54000000    
   MAXIMUM Y CELL CENTER =     6432406.54000000    
   MAXIMUM NUMBER OF CELL2D VERTICES IS 6 FOR CELL 208
 END PROCESSING VERTICES

 NPF -- NODE PROPERTY FLOW PACKAGE, VERSION 1, 3/30/2015 INPUT READ FROM UNIT 1007


 # File generated by Flopy version 3.3.5 on 03/29/2022 at 18:29:09.
 PROCESSING NPF OPTIONS
    CELL-BY-CELL FLOW INFORMATION WILL BE SAVED TO BINARY FILE WHENEVER ICBCFL IS NOT ZERO.
    SPECIFIC DISCHARGE WILL BE CALCULATED AT CELL CENTERS AND WRITTEN TO DATA-SPDIS IN BUDGET FILE WHEN REQUESTED.
 END OF NPF OPTIONS

 WEL   -- WEL PACKAGE, VERSION 8, 2/22/2014 INPUT READ FROM UNIT 1012
 # File generated by Flopy version 3.3.5 on 03/29/2022 at 18:29:09.

 PROCESSING WEL OPTIONS
    WEL BOUNDARIES HAVE NAMES IN LAST COLUMN.
    FLOWS WILL BE SAVED TO BUDGET FILE SPECIFIED IN OUTPUT CONTROL
 END OF WEL OPTIONS

 PROCESSING WEL DIMENSIONS
    MAXBOUND =       9
 END OF WEL DIMENSIONS

 DRN   -- DRN PACKAGE, VERSION 8, 2/22/2014 INPUT READ FROM UNIT 1013
 # File generated by Flopy version 3.3.5 on 03/29/2022 at 18:29:10.

 PROCESSING DRN OPTIONS
    DRN BOUNDARIES HAVE NAMES IN LAST COLUMN.
    FLOWS WILL BE SAVED TO BUDGET FILE SPECIFIED IN OUTPUT CONTROL

 OPENED ml.drn.obs
 FILE TYPE:OBS   UNIT 1016   STATUS:OLD                 
 FORMAT:FORMATTED              ACCESS:SEQUENTIAL          
 ACTION:READ                

 END OF DRN OPTIONS

 PROCESSING DRN DIMENSIONS
    MAXBOUND =     133
 END OF DRN DIMENSIONS

 RIV   -- RIV PACKAGE, VERSION 8, 2/22/2014 INPUT READ FROM UNIT 1014
 # File generated by Flopy version 3.3.5 on 03/29/2022 at 18:29:10.

 PROCESSING RIV OPTIONS
    AUXILIARY RIV VARIABLE: FID             
    RIV BOUNDARIES HAVE NAMES IN LAST COLUMN.
    FLOWS WILL BE SAVED TO BUDGET FILE SPECIFIED IN OUTPUT CONTROL
 END OF RIV OPTIONS

 PROCESSING RIV DIMENSIONS
    MAXBOUND =     794
 END OF RIV DIMENSIONS

 GHB   -- GHB PACKAGE, VERSION 8, 2/22/2014 INPUT READ FROM UNIT 1008
 # File generated by Flopy version 3.3.5 on 03/29/2022 at 18:29:09.

 PROCESSING GHB OPTIONS
    GHB BOUNDARIES HAVE NAMES IN LAST COLUMN.
    FLOWS WILL BE SAVED TO BUDGET FILE SPECIFIED IN OUTPUT CONTROL
 END OF GHB OPTIONS

 PROCESSING GHB DIMENSIONS
    MAXBOUND =     153
 END OF GHB DIMENSIONS

 RCH   -- RCH PACKAGE, VERSION 8, 2/22/2014 INPUT READ FROM UNIT 1009
 # File generated by Flopy version 3.3.5 on 03/29/2022 at 18:29:09.

 PROCESSING RCH OPTIONS
    RECHARGE INPUT WILL BE READ AS ARRAY(S).
    FLOWS WILL BE SAVED TO BUDGET FILE SPECIFIED IN OUTPUT CONTROL
 END OF RCH OPTIONS

 IC -- INITIAL CONDITIONS PACKAGE, VERSION 8, 3/28/2015 INPUT READ FROM UNIT 1006
 # File generated by Flopy version 3.3.5 on 03/29/2022 at 18:29:09.
 PROCESSING GRIDDATA

     INITIAL HEAD =   15.00000    
 END PROCESSING GRIDDATA
 PROCESSING GRIDDATA

                ICELLTYPE = 0

 OPENED ../com_ext/k.txt
 FILE TYPE:OPEN/CLOSE   UNIT 1017   STATUS:OLD                 
 FORMAT:FORMATTED              ACCESS:SEQUENTIAL          
 ACTION:READ                

 K33 not provided.  Assuming K33 = K.
 K22 not provided.  Assuming K22 = K.
 END PROCESSING GRIDDATA

The observation utility is active for "ML"
 # File generated by Flopy version 3.3.5 on 03/29/2022 at 18:29:09.

Processing observation options:

Text output number of digits of precision set to: 10
The PRINT_INPUT option has been specified.


 OBSERVATIONS READ FROM FILE "ml.obs"
 ----------------------------------------------------------------------------------------------------------------------------------------------------------------------------------------------------------------------------
 NAME                                     TYPE                                       TIME         LOCATION DATA                              OUTPUT FILENAME                                                                 
 ----------------------------------------------------------------------------------------------------------------------------------------------------------------------------------------------------------------------------
 PRG                                      CONTINUOUS  HEAD                           ALL TIMES    "1 16523"                                  sim/hds.csv                                                                     
 P8                                       CONTINUOUS  HEAD                           ALL TIMES    "1 10323"                                  sim/hds.csv                                                                     
 P24                                      CONTINUOUS  HEAD                           ALL TIMES    "1 9594"                                   sim/hds.csv                                                                     
 P25                                      CONTINUOUS  HEAD                           ALL TIMES    "1 13966"                                  sim/hds.csv                                                                     
 P32                                      CONTINUOUS  HEAD                           ALL TIMES    "1 15787"                                  sim/hds.csv                                                                     
 P33                                      CONTINUOUS  HEAD                           ALL TIMES    "1 15825"                                  sim/hds.csv                                                                     
 PF                                       CONTINUOUS  HEAD                           ALL TIMES    "1 21048"                                  sim/hds.csv                                                                     
 PH                                       CONTINUOUS  HEAD                           ALL TIMES    "1 20781"                                  sim/hds.csv                                                                     
 PZHM1                                    CONTINUOUS  HEAD                           ALL TIMES    "1 14521"                                  sim/hds.csv                                                                     
 P26                                      CONTINUOUS  HEAD                           ALL TIMES    "1 13141"                                  sim/hds.csv                                                                     
 P27                                      CONTINUOUS  HEAD                           ALL TIMES    "1 8465"                                   sim/hds.csv                                                                     
 P28                                      CONTINUOUS  HEAD                           ALL TIMES    "1 8924"                                   sim/hds.csv                                                                     
 P29                                      CONTINUOUS  HEAD                           ALL TIMES    "1 4524"                                   sim/hds.csv                                                                     
 P30                                      CONTINUOUS  HEAD                           ALL TIMES    "1 5255"                                   sim/hds.csv                                                                     
 R20                                      CONTINUOUS  HEAD                           ALL TIMES    "1 10676"                                  sim/hds.csv                                                                     
 R21                                      CONTINUOUS  HEAD                           ALL TIMES    "1 10403"                                  sim/hds.csv                                                                     
 P34                                      CONTINUOUS  HEAD                           ALL TIMES    "1 15131"                                  sim/hds.csv                                                                     
 P37                                      CONTINUOUS  HEAD                           ALL TIMES    "1 15755"                                  sim/hds.csv                                                                     
 P38                                      CONTINUOUS  HEAD                           ALL TIMES    "1 15045"                                  sim/hds.csv                                                                     
 P39                                      CONTINUOUS  HEAD                           ALL TIMES    "1 9637"                                   sim/hds.csv                                                                     
 P40                                      CONTINUOUS  HEAD                           ALL TIMES    "1 9312"                                   sim/hds.csv                                                                     
 AP1                                      CONTINUOUS  HEAD                           ALL TIMES    "1 9702"                                   sim/hds.csv                                                                     
 RCK1                                     CONTINUOUS  HEAD                           ALL TIMES    "1 15900"                                  sim/hds.csv                                                                     
 RCK2                                     CONTINUOUS  HEAD                           ALL TIMES    "1 15199"                                  sim/hds.csv                                                                     
 P23                                      CONTINUOUS  HEAD                           ALL TIMES    "1 6409"                                   sim/hds.csv                                                                     
 ----------------------------------------------------------------------------------------------------------------------------------------------------------------------------------------------------------------------------


    BINARY GRID INFORMATION WILL BE WRITTEN TO:
      UNIT NUMBER: 1019
      FILE NAME: /srv/common/ptrack/case_study/pst_master/ml_02/./ml.disv.grb

 OPENED /srv/common/ptrack/case_study/pst_master/ml_02/./ml.disv.grb
 FILE TYPE:DATA(BINARY)   UNIT 1019   STATUS:REPLACE             
 FORMAT:UNFORMATTED            ACCESS:STREAM              
 ACTION:READWRITE           

      THE LAST TIME STEP WILL BE PRINTED
      THE LAST TIME STEP WILL BE PRINTED
 # File generated by Flopy version 3.3.5 on 03/29/2022 at 18:29:09.

 PROCESSING OC OPTIONS

    BUDGET INFORMATION WILL BE WRITTEN TO:
      UNIT NUMBER: 1020
      FILE NAME: ml.cbc

 OPENED ml.cbc
 FILE TYPE:DATA(BINARY)   UNIT 1020   STATUS:REPLACE             
 FORMAT:UNFORMATTED            ACCESS:STREAM              
 ACTION:READWRITE           

    HEAD INFORMATION WILL BE WRITTEN TO:
      UNIT NUMBER: 1021
      FILE NAME: ml.hds

 OPENED ml.hds
 FILE TYPE:DATA(BINARY)   UNIT 1021   STATUS:REPLACE             
 FORMAT:UNFORMATTED            ACCESS:STREAM              
 ACTION:READWRITE           

 END OF OC OPTIONS

The observation utility is active for "DRN_0"
 # File generated by Flopy version 3.3.5 on 03/29/2022 at 18:29:10.

Processing observation options:



start timestep kper="1" kstp="1" mode="normal"


 BEGIN READING OUTPUT CONTROL FOR STRESS PERIOD 1
      THE LAST TIME STEP WILL BE SAVED
      THE LAST TIME STEP WILL BE SAVED

 END READING OUTPUT CONTROL FOR STRESS PERIOD 1

 OPENED ext/well_spd_1.txt
 FILE TYPE:OPEN/CLOSE   UNIT 1023   STATUS:OLD                 
 FORMAT:FORMATTED              ACCESS:SEQUENTIAL          
 ACTION:READ                


 OPENED ext/drn_spd_1.txt
 FILE TYPE:OPEN/CLOSE   UNIT 1024   STATUS:OLD                 
 FORMAT:FORMATTED              ACCESS:SEQUENTIAL          
 ACTION:READ                


 OPENED ext/riv_spd_1.txt
 FILE TYPE:OPEN/CLOSE   UNIT 1025   STATUS:OLD                 
 FORMAT:FORMATTED              ACCESS:SEQUENTIAL          
 ACTION:READ                


 OPENED ../com_ext/ghb_spd_1.txt
 FILE TYPE:OPEN/CLOSE   UNIT 1026   STATUS:OLD                 
 FORMAT:FORMATTED              ACCESS:SEQUENTIAL          
 ACTION:READ                


 OPENED ../com_ext/rech_spd_1.txt
 FILE TYPE:OPEN/CLOSE   UNIT 1027   STATUS:OLD                 
 FORMAT:FORMATTED              ACCESS:SEQUENTIAL          
 ACTION:READ                


 SLN_1 INNER ITERATION SUMMARY
 --------------------------------------------------------------------------------------------------------------------------------------
      TOTAL      OUTER      INNER                                                            MAXIMUM                                   
  ITERATION  ITERATION  ITERATION  MAXIMUM CHANGE      MAXIMUM CHANGE MODEL-(CELLID)        RESIDUAL    MAXIMUM RESIDUAL MODEL-(CELLID)
 --------------------------------------------------------------------------------------------------------------------------------------
          1          1          1      -11.728710                    1_GWF-(1,12785)      0.34807170                    1_GWF-(1,11173)
          2          1          2       6.2233618                    1_GWF-(1,26552)      0.16048051                    1_GWF-(1,11166)
          3          1          3       5.4679966                    1_GWF-(1,26559)      0.11995329                    1_GWF-(1,11133)
          4          1          4       5.1267971                    1_GWF-(1,26510)      0.16399243                    1_GWF-(1,11052)
          5          1          5       4.7450959                    1_GWF-(1,26519)      0.19866216                    1_GWF-(1,11050)
          6          1          6       3.9860996                    1_GWF-(1,26665)      0.19683463                    1_GWF-(1,11017)
          7          1          7       3.8259527                    1_GWF-(1,26647)      0.14673419                    1_GWF-(1,10843)
          8          1          8       4.2840810                    1_GWF-(1,26665)      0.14715555                    1_GWF-(1,10843)
          9          1          9       3.1941599                    1_GWF-(1,26647)      0.11035318                    1_GWF-(1,10821)
         10          1         10       3.4216820                    1_GWF-(1,26665)      0.14070965                    1_GWF-(1,11041)
         11          1         11       2.7623372                    1_GWF-(1,26544)      0.15016779                    1_GWF-(1,11039)
         12          1         12       2.2376841                    1_GWF-(1,26486)      0.14391541                    1_GWF-(1,11017)
         13          1         13       2.5287914                    1_GWF-(1,26420)      0.12875867                    1_GWF-(1,10843)
         14          1         14       2.4183373                    1_GWF-(1,26421)      0.14420214                    1_GWF-(1,10842)
         15          1         15       2.3900468                    1_GWF-(1,26218)  9.73448340E-02                    1_GWF-(1,10820)
         16          1         16       2.0552839                    1_GWF-(1,26217)      0.12172602                    1_GWF-(1,11058)
         17          1         17       1.7674872                    1_GWF-(1,26589)      0.17227034                    1_GWF-(1,11052)
         18          1         18       3.0011422                    1_GWF-(1,26588)      0.16316344                    1_GWF-(1,11039)
         19          1         19      -4.1956523                    1_GWF-(1,26588)      0.17359952                    1_GWF-(1,11016)
         20          1         20      -3.4273969                    1_GWF-(1,26543)      0.11849268                    1_GWF-(1,11014)
         21          1         21      -2.6518535                    1_GWF-(1,26544)      0.12136186                    1_GWF-(1,11047)
         22          1         22      -3.4646810                    1_GWF-(1,26486)      0.15324161                    1_GWF-(1,11051)
         23          1         23      -3.8622574                    1_GWF-(1,26487)      0.11855505                    1_GWF-(1,11028)
         24          1         24      -3.6216050                    1_GWF-(1,26486)      0.13001559                    1_GWF-(1,11015)
         25          1         25      -3.0344123                    1_GWF-(1,26487)      0.12373337                    1_GWF-(1,10851)
         26          1         26      -2.4594264                    1_GWF-(1,26588)      0.12680881                    1_GWF-(1,10845)
         27          1         27      -2.1817763                    1_GWF-(1,26623)      0.12701973                    1_GWF-(1,10821)
         28          1         28       1.7017994                    1_GWF-(1,26421)  9.10500414E-02                     1_GWF-(1,9908)
         29          1         29      -1.7422670                    1_GWF-(1,26648)  8.99655575E-02                    1_GWF-(1,10848)
         30          1         30       1.3608243                    1_GWF-(1,26422)  8.69342930E-02                    1_GWF-(1,10843)
         31          1         31      -1.6424661                    1_GWF-(1,26422)  9.09161001E-02                    1_GWF-(1,10821)
         32          1         32      -2.1089268                    1_GWF-(1,26350)  6.11666827E-02                    1_GWF-(1,14877)
         33          1         33      -2.2163220                    1_GWF-(1,26422)  6.60795840E-02                    1_GWF-(1,14879)
         34          1         34      -1.6921287                    1_GWF-(1,26350)  5.09216106E-02                    1_GWF-(1,14878)
         35          1         35      -1.3136346                    1_GWF-(1,26422)  5.70909491E-02                    1_GWF-(1,10856)
         36          1         36      -1.0028228                    1_GWF-(1,26350)  5.55873342E-02                    1_GWF-(1,10848)
         37          1         37      0.92432823                    1_GWF-(1,26350)  7.26837455E-02                    1_GWF-(1,10846)
         38          1         38      -1.1037874                    1_GWF-(1,24326)  7.79936353E-02                    1_GWF-(1,11052)
         39          1         39      -1.3090575                    1_GWF-(1,24255) -7.53965809E-02                    1_GWF-(1,10843)
         40          1         40      -1.2513046                    1_GWF-(1,24243)  7.41635580E-02                    1_GWF-(1,10848)
         41          1         41      -1.0281272                    1_GWF-(1,21513)  6.39141863E-02                    1_GWF-(1,10843)
         42          1         42      -1.0886887                    1_GWF-(1,21496) -5.98332369E-02                    1_GWF-(1,11017)
         43          1         43      -1.0212755                    1_GWF-(1,21492)  6.27047243E-02                    1_GWF-(1,14878)
         44          1         44     -0.90866531                    1_GWF-(1,24607)  6.10166288E-02                    1_GWF-(1,14856)
         45          1         45     -0.79820243                    1_GWF-(1,21367)  6.51777620E-02                    1_GWF-(1,14875)
         46          1         46     -0.77985432                    1_GWF-(1,21320)  5.74680942E-02                    1_GWF-(1,14856)
         47          1         47     -0.70851368                    1_GWF-(1,21307)  5.31951292E-02                     1_GWF-(1,9897)
         48          1         48     -0.96007049                    1_GWF-(1,26218)  4.83078761E-02                    1_GWF-(1,14873)
         49          1         49      -1.2684249                    1_GWF-(1,26217) -5.29811476E-02                    1_GWF-(1,11017)
         50          1         50      -1.6239148                    1_GWF-(1,26218) -5.21733454E-02                    1_GWF-(1,10855)
         51          2          1      -20.423889                    1_GWF-(1,26519)     -0.15712287                    1_GWF-(1,26381)
         52          2          2      -9.7105832                    1_GWF-(1,26513)  4.30636305E-02                    1_GWF-(1,26381)
         53          2          3      -3.8962293                    1_GWF-(1,26395)  4.46176943E-02                    1_GWF-(1,10250)
         54          2          4      -4.2532729                    1_GWF-(1,26665)  4.61713832E-02                    1_GWF-(1,10250)
         55          2          5      -2.9920568                    1_GWF-(1,26648)  4.62482916E-02                    1_GWF-(1,10250)
         56          2          6      -2.6578602                    1_GWF-(1,26586)  4.49648008E-02                    1_GWF-(1,10250)
         57          2          7      -2.3275906                    1_GWF-(1,26543)  4.45684802E-02                    1_GWF-(1,10250)
         58          2          8      -2.1713321                    1_GWF-(1,26486)  4.45822970E-02                     1_GWF-(1,9908)
         59          2          9      -1.8019395                    1_GWF-(1,26487)  4.47047022E-02                    1_GWF-(1,10250)
         60          2         10      -1.8598982                    1_GWF-(1,26218)  4.41723594E-02                    1_GWF-(1,10250)
         61          2         11      -1.6790175                    1_GWF-(1,26422)  4.33650789E-02                    1_GWF-(1,10250)
         62          2         12      -1.2417251                    1_GWF-(1,26217)  4.26603646E-02                    1_GWF-(1,10250)
         63          2         13      -1.0793756                    1_GWF-(1,26218)  4.16583926E-02                    1_GWF-(1,10250)
         64          2         14     -0.83649390                    1_GWF-(1,26649)  4.02755505E-02                    1_GWF-(1,10250)
         65          2         15      0.85925292                    1_GWF-(1,26217)  3.82674539E-02                    1_GWF-(1,10250)
         66          2         16       1.2185673                    1_GWF-(1,26420)  3.50735669E-02                    1_GWF-(1,10250)
         67          2         17       1.4820530                    1_GWF-(1,26350)  3.28914208E-02                     1_GWF-(1,9908)
         68          2         18       1.3874843                    1_GWF-(1,26422)  3.16700457E-02                     1_GWF-(1,9908)
         69          2         19       1.4978754                    1_GWF-(1,26218)  3.08250164E-02                     1_GWF-(1,9908)
         70          2         20       1.0644436                    1_GWF-(1,26543)  3.13499712E-02                    1_GWF-(1,10250)
         71          2         21       1.7506607                    1_GWF-(1,26588)  3.22125708E-02                    1_GWF-(1,10250)
         72          2         22       2.1368842                    1_GWF-(1,26543)  3.28268430E-02                    1_GWF-(1,10250)
         73          2         23       1.4733695                    1_GWF-(1,26588)  3.19967021E-02                    1_GWF-(1,10250)
         74          2         24      -1.8199724                    1_GWF-(1,26487)  2.92240204E-02                     1_GWF-(1,9908)
         75          2         25      -2.0651435                    1_GWF-(1,26420)  3.11961304E-02                    1_GWF-(1,14858)
         76          2         26      -1.9928434                    1_GWF-(1,26487)  2.46378550E-02                    1_GWF-(1,14867)
         77          2         27      -1.6413957                    1_GWF-(1,26588)  1.74031885E-02                    1_GWF-(1,14856)
         78          2         28      -1.0492308                    1_GWF-(1,26487)  2.48396526E-02                    1_GWF-(1,14858)
         79          2         29     -0.66488296                    1_GWF-(1,26327)  2.99226077E-02                    1_GWF-(1,14867)
         80          2         30      0.58512443                    1_GWF-(1,26420)  3.35672612E-02                    1_GWF-(1,14858)
         81          2         31     -0.56658270                    1_GWF-(1,26168)  3.61915819E-02                    1_GWF-(1,14867)
         82          2         32     -0.70684196                    1_GWF-(1,26674)  4.05227705E-02                    1_GWF-(1,14858)
         83          2         33      0.86535966                    1_GWF-(1,26543)  4.28290652E-02                    1_GWF-(1,14867)
         84          2         34     -0.63131174                    1_GWF-(1,25790)  4.67207665E-02                    1_GWF-(1,14858)
         85          2         35       1.0219179                    1_GWF-(1,26623)  4.77426317E-02                    1_GWF-(1,14781)
         86          2         36      0.98947262                    1_GWF-(1,26649)  3.66371263E-02                    1_GWF-(1,14858)
         87          2         37       1.0577802                    1_GWF-(1,26648)  4.38522366E-02                    1_GWF-(1,14781)
         88          2         38     -0.66327084                    1_GWF-(1,26648)  3.35508428E-02                    1_GWF-(1,14856)
         89          2         39      -1.0819219                    1_GWF-(1,26649)  2.76641591E-02                    1_GWF-(1,14879)
         90          2         40      0.77071874                    1_GWF-(1,26350)  3.33487149E-02                    1_GWF-(1,14867)
         91          2         41      0.67318054                    1_GWF-(1,26422)  2.96164262E-02                    1_GWF-(1,14858)
         92          2         42     -0.66781411                    1_GWF-(1,26422)  3.79532199E-02                    1_GWF-(1,14781)
         93          2         43     -0.68199953                    1_GWF-(1,26350)  2.45238581E-02                    1_GWF-(1,14780)
         94          2         44     -0.40037875                    1_GWF-(1,26422)  2.27902397E-02                    1_GWF-(1,14781)
         95          2         45      0.47979249                    1_GWF-(1,26422)  1.98719775E-02                    1_GWF-(1,14877)
         96          2         46     -0.39646373                    1_GWF-(1,26422)  2.34396942E-02                    1_GWF-(1,14879)
         97          2         47     -0.45190553                    1_GWF-(1,26672)  2.82619815E-02                    1_GWF-(1,14867)
         98          2         48     -0.42483023                    1_GWF-(1,26665)  3.63574675E-02                    1_GWF-(1,14782)
         99          2         49      0.43535004                    1_GWF-(1,20729)  5.77917606E-02                    1_GWF-(1,14781)
        100          2         50      0.55102420                    1_GWF-(1,24254)  4.80039481E-02                    1_GWF-(1,14780)
        101          3          1      0.34337447                    1_GWF-(1,26673)  5.20933994E-02                    1_GWF-(1,14781)
        102          3          2      0.41356066                    1_GWF-(1,26672)  3.21760508E-02                    1_GWF-(1,14858)
        103          3          3      0.33530418                    1_GWF-(1,26665)  2.94649968E-02                    1_GWF-(1,14781)
        104          3          4      0.28376470                    1_GWF-(1,26672)  2.84429644E-02                    1_GWF-(1,14858)
        105          3          5      0.29196569                    1_GWF-(1,20463)  2.98916043E-02                    1_GWF-(1,14781)
        106          3          6      0.29303193                    1_GWF-(1,20471)  2.11599835E-02                    1_GWF-(1,14780)
        107          3          7     -0.38581858                    1_GWF-(1,26350)  1.96222701E-02                    1_GWF-(1,10843)
        108          3          8     -0.53248952                    1_GWF-(1,26422)  2.39204266E-02                    1_GWF-(1,14876)
        109          3          9      0.41472510                    1_GWF-(1,26422)  2.83391130E-02                    1_GWF-(1,14873)
        110          3         10      0.59228440                    1_GWF-(1,26350)  3.63728446E-02                    1_GWF-(1,14781)
        111          3         11      0.43697315                    1_GWF-(1,26422)  3.12202721E-02                    1_GWF-(1,14856)
        112          3         12     -0.53952939                    1_GWF-(1,26422)  2.61901854E-02                    1_GWF-(1,14781)
        113          3         13      0.42046811                    1_GWF-(1,26422)  1.62085534E-02                    1_GWF-(1,14874)
        114          3         14      0.38915343                    1_GWF-(1,26350)  2.42449799E-02                    1_GWF-(1,14873)
        115          3         15     -0.50614633                    1_GWF-(1,26649)  2.74196878E-02                    1_GWF-(1,14781)
        116          3         16     -0.36255654                    1_GWF-(1,26648)  3.42504095E-02                    1_GWF-(1,14780)
        117          3         17     -0.37974759                    1_GWF-(1,26663)  4.22384125E-02                    1_GWF-(1,14781)
        118          3         18     -0.36293432                    1_GWF-(1,26543)  3.13097141E-02                    1_GWF-(1,14858)
        119          3         19      0.40996984                    1_GWF-(1,26181)  3.34702458E-02                    1_GWF-(1,14781)
        120          3         20      0.37609361                    1_GWF-(1,26154)  2.99126267E-02                    1_GWF-(1,14780)
        121          3         21      0.33989948                    1_GWF-(1,26623)  3.48262578E-02                    1_GWF-(1,14781)
        122          3         22     -0.28302519                    1_GWF-(1,26487)  2.19814505E-02                    1_GWF-(1,14856)
        123          3         23      0.45041870                    1_GWF-(1,26487)  1.92723929E-02                    1_GWF-(1,14781)
        124          3         24      0.66445281                    1_GWF-(1,26588)  1.29737761E-02                    1_GWF-(1,14856)
        125          3         25      0.75044670                    1_GWF-(1,26487)  2.04842335E-02                    1_GWF-(1,14780)
        126          3         26      0.68262805                    1_GWF-(1,26420)  3.08991171E-02                    1_GWF-(1,14781)
        127          3         27      0.61714607                    1_GWF-(1,26487)  2.44846101E-02                    1_GWF-(1,14874)
        128          3         28     -0.44569015                    1_GWF-(1,26588)  2.35389334E-02                    1_GWF-(1,14781)
        129          3         29     -0.74092459                    1_GWF-(1,26543)  1.51254286E-02                    1_GWF-(1,14781)
        130          3         30     -0.74549226                    1_GWF-(1,26588)  1.86010492E-02                    1_GWF-(1,14780)
        131          3         31     -0.47861308                    1_GWF-(1,26543)  1.80234765E-02                    1_GWF-(1,14781)
        132          3         32     -0.38962644                    1_GWF-(1,26218) -1.43443339E-02                    1_GWF-(1,14781)
        133          3         33     -0.37165608                    1_GWF-(1,26422)  1.58111168E-02                    1_GWF-(1,14879)
        134          3         34      0.46418636                    1_GWF-(1,26622)  9.50847359E-03                    1_GWF-(1,10250)
        135          3         35      0.39829718                    1_GWF-(1,26649)  1.26552398E-02                    1_GWF-(1,14780)
        136          3         36      0.32371206                    1_GWF-(1,26622)  1.71545801E-02                    1_GWF-(1,14781)
        137          3         37      0.31561189                    1_GWF-(1,26649)  1.06852372E-02                     1_GWF-(1,9908)
        138          3         38      0.28839626                    1_GWF-(1,26218)  1.05019100E-02                     1_GWF-(1,9908)
        139          3         39     -0.28545460                    1_GWF-(1,26666)  1.11279268E-02                    1_GWF-(1,10250)
        140          3         40     -0.37560021                    1_GWF-(1,26665)  1.18938581E-02                    1_GWF-(1,10250)
        141          3         41     -0.24220014                    1_GWF-(1,26647)  1.20729088E-02                    1_GWF-(1,10250)
        142          3         42     -0.26592804                    1_GWF-(1,26665)  1.15098108E-02                     1_GWF-(1,9908)
        143          3         43      0.24030407                    1_GWF-(1,26543)  1.26282096E-02                    1_GWF-(1,14879)
        144          3         44      0.22727688                    1_GWF-(1,26586)  1.19694417E-02                    1_GWF-(1,14872)
        145          3         45      0.26572441                    1_GWF-(1,26649)  1.19384358E-02                    1_GWF-(1,14873)
        146          3         46      0.31881366                    1_GWF-(1,26648)  1.12159658E-02                    1_GWF-(1,14781)
        147          3         47      0.28138103                    1_GWF-(1,26218)  1.58260878E-02                    1_GWF-(1,14856)
        148          3         48      0.24291670                    1_GWF-(1,26217)  1.85537363E-02                    1_GWF-(1,14781)
        149          3         49     -0.40300581                    1_GWF-(1,26217)  1.88844524E-02                    1_GWF-(1,14874)
        150          3         50     -0.40520631                    1_GWF-(1,26649)  2.65879191E-02                    1_GWF-(1,14879)
        151          4          1      0.25471882                    1_GWF-(1,26218)  1.71471241E-02                    1_GWF-(1,14874)
        152          4          2      0.25036462                    1_GWF-(1,26217)  1.87742401E-02                    1_GWF-(1,14879)
        153          4          3     -0.19071375                    1_GWF-(1,26217)  1.17094662E-02                    1_GWF-(1,14878)
        154          4          4     -0.20352489                    1_GWF-(1,26218)  1.19039982E-02                    1_GWF-(1,14879)
        155          4          5      0.14279585                    1_GWF-(1,26218)  1.05260554E-02                    1_GWF-(1,10250)
        156          4          6     -0.16169440                    1_GWF-(1,26513)  1.03273201E-02                    1_GWF-(1,10250)
        157          4          7     -0.15996724                    1_GWF-(1,26217)  1.00431429E-02                     1_GWF-(1,9908)
        158          4          8     -0.17651492                    1_GWF-(1,26218)  9.69399321E-03                     1_GWF-(1,9908)
        159          4          9     -0.13506541                    1_GWF-(1,26217)  9.20522776E-03                    1_GWF-(1,10250)
        160          4         10     -0.17339948                    1_GWF-(1,26665)  8.12640053E-03                    1_GWF-(1,10250)
        161          4         11      0.29482031                    1_GWF-(1,26665)  7.33500021E-03                    1_GWF-(1,14879)
        162          4         12      0.26132885                    1_GWF-(1,26666)  6.42957803E-03                     1_GWF-(1,9908)
        163          4         13      0.19418904                    1_GWF-(1,26649)  6.48611402E-03                     1_GWF-(1,9908)
        164          4         14      0.18089254                    1_GWF-(1,26622)  9.28438223E-03                    1_GWF-(1,14879)
        165          4         15      0.22486011                    1_GWF-(1,26649)  8.40132146E-03                    1_GWF-(1,14874)
        166          4         16     -0.27321622                    1_GWF-(1,26649)  7.62900082E-03                    1_GWF-(1,10250)
        167          4         17     -0.27898722                    1_GWF-(1,26622)  7.04701869E-03                     1_GWF-(1,9908)
        168          4         18     -0.20121527                    1_GWF-(1,26623)  7.05654792E-03                    1_GWF-(1,14878)
        169          4         19      0.16633856                    1_GWF-(1,26623)  9.18864262E-03                    1_GWF-(1,14879)
        170          4         20     -0.20975455                    1_GWF-(1,26588)  8.14890987E-03                    1_GWF-(1,14785)
        171          4         21     -0.27655728                    1_GWF-(1,26543)  9.42658912E-03                    1_GWF-(1,14867)
        172          4         22     -0.27544890                    1_GWF-(1,26588)  8.78273429E-03                    1_GWF-(1,14781)
        173          4         23     -0.20357673                    1_GWF-(1,26543)  1.02806315E-02                    1_GWF-(1,14875)
        174          4         24     -0.21798031                    1_GWF-(1,26487)  1.15185094E-02                    1_GWF-(1,14879)
        175          4         25      0.17829465                    1_GWF-(1,26487)  1.06979855E-02                    1_GWF-(1,14872)
        176          4         26      0.26131114                    1_GWF-(1,26420)  7.14619011E-03                    1_GWF-(1,14873)
        177          4         27      0.27732686                    1_GWF-(1,26487)  7.77904264E-03                    1_GWF-(1,14879)
        178          4         28      0.21414858                    1_GWF-(1,26420)  1.15094604E-02                    1_GWF-(1,14875)
        179          4         29      0.21679424                    1_GWF-(1,26543)  1.30660685E-02                    1_GWF-(1,14867)
        180          4         30      0.20076884                    1_GWF-(1,26420)  1.45062211E-02                    1_GWF-(1,14785)
        181          4         31      0.13294731                    1_GWF-(1,26623)  1.57635477E-02                    1_GWF-(1,14867)
        182          4         32      0.12879766                    1_GWF-(1,26586)  1.97354179E-02                    1_GWF-(1,14858)
        183          4         33      0.13970155                    1_GWF-(1,26543)  1.94222595E-02                    1_GWF-(1,14867)
        184          4         34      0.13994442                    1_GWF-(1,20547)  2.04569992E-02                    1_GWF-(1,14858)
        185          4         35     -0.14076454                    1_GWF-(1,26586)  1.82676048E-02                    1_GWF-(1,14867)
        186          4         36      0.14891252                    1_GWF-(1,20564)  1.28416994E-02                    1_GWF-(1,14858)
        187          4         37     -0.13344827                    1_GWF-(1,26350)  8.90728375E-03                    1_GWF-(1,14781)
        188          4         38     -0.14749000                    1_GWF-(1,26422)  7.25331537E-03                    1_GWF-(1,14780)
        189          4         39     -0.15589379                    1_GWF-(1,26544)  8.08292964E-03                    1_GWF-(1,14781)
        190          4         40     -0.16312365                    1_GWF-(1,26486)  8.81649425E-03                    1_GWF-(1,14867)
        191          4         41     -0.18798784                    1_GWF-(1,26350)  1.13562244E-02                    1_GWF-(1,14858)
        192          4         42     -0.15381635                    1_GWF-(1,26422)  1.06817805E-02                    1_GWF-(1,14867)
        193          4         43  9.79998929E-02                    1_GWF-(1,26422)  1.00672369E-02                    1_GWF-(1,14780)
        194          4         44      0.10277052                    1_GWF-(1,26350)  1.26750380E-02                    1_GWF-(1,14781)
        195          4         45  8.02231187E-02                    1_GWF-(1,26422)  1.07515825E-02                    1_GWF-(1,14856)
        196          4         46 -8.22899381E-02                    1_GWF-(1,20345)  8.82034109E-03                    1_GWF-(1,14781)
        197          4         47  9.74064005E-02                    1_GWF-(1,26422)  6.11317546E-03                    1_GWF-(1,14873)
        198          4         48      0.10204859                    1_GWF-(1,26350)  7.94762665E-03                    1_GWF-(1,14875)
        199          4         49 -8.77629284E-02                    1_GWF-(1,20479)  1.05649399E-02                    1_GWF-(1,14867)
        200          4         50 -7.71429044E-02                    1_GWF-(1,24284)  1.07533684E-02                    1_GWF-(1,14858)
        201          5          1  6.46869517E-02                    1_GWF-(1,26673)  1.11892853E-02                    1_GWF-(1,14867)
        202          5          2  7.15264424E-02                    1_GWF-(1,26672)  9.50462405E-03                    1_GWF-(1,14858)
        203          5          3 -7.10680053E-02                    1_GWF-(1,26672)  8.02338655E-03                    1_GWF-(1,14867)
        204          5          4 -6.07753652E-02                    1_GWF-(1,26193)  8.56620909E-03                    1_GWF-(1,14858)
        205          5          5 -6.95179153E-02                    1_GWF-(1,21259)  7.37709869E-03                    1_GWF-(1,14781)
        206          5          6 -7.57739712E-02                    1_GWF-(1,26486)  5.17034018E-03                    1_GWF-(1,14780)
        207          5          7 -9.28182249E-02                    1_GWF-(1,26350)  4.84688081E-03                    1_GWF-(1,14782)
        208          5          8 -9.69712277E-02                    1_GWF-(1,26422)  6.23899806E-03                    1_GWF-(1,14867)
        209          5          9  8.79761853E-02                    1_GWF-(1,26422)  7.15997342E-03                    1_GWF-(1,14858)
        210          5         10      0.11684415                    1_GWF-(1,26350)  7.75990000E-03                    1_GWF-(1,14867)
        211          5         11      0.10850292                    1_GWF-(1,26486)  7.50055184E-03                    1_GWF-(1,14858)
        212          5         12  9.95173605E-02                    1_GWF-(1,26420)  6.29517015E-03                    1_GWF-(1,14781)
        213          5         13      0.11878663                    1_GWF-(1,26422)  4.73892401E-03                    1_GWF-(1,14874)
        214          5         14      0.11015773                    1_GWF-(1,26350)  4.53291148E-03                    1_GWF-(1,14876)
        215          5         15      0.11543637                    1_GWF-(1,26623)  9.18290397E-03                    1_GWF-(1,14867)
        216          5         16      0.10185094                    1_GWF-(1,26586)  1.03219813E-02                    1_GWF-(1,14782)
        217          5         17  7.68695528E-02                    1_GWF-(1,26648)  1.12651266E-02                    1_GWF-(1,14867)
        218          5         18 -7.77213260E-02                    1_GWF-(1,26623)  1.11912973E-02                    1_GWF-(1,14858)
        219          5         19 -8.18804913E-02                    1_GWF-(1,26649)  1.08777183E-02                    1_GWF-(1,14867)
        220          5         20 -6.92959315E-02                    1_GWF-(1,26648)  1.08028924E-02                    1_GWF-(1,14858)
        221          5         21     -0.10117949                    1_GWF-(1,26420)  1.20032471E-02                    1_GWF-(1,14781)
        222          5         22     -0.10888563                    1_GWF-(1,26487)  1.01063700E-02                    1_GWF-(1,14858)
        223          5         23 -9.82113127E-02                    1_GWF-(1,26420)  6.20511617E-03                    1_GWF-(1,14781)
        224          5         24     -0.11858584                    1_GWF-(1,26487)  2.56632242E-03                    1_GWF-(1,14867)
        225          5         25     -0.10264230                    1_GWF-(1,26420)  7.46859786E-03                    1_GWF-(1,14780)
        226          5         26 -7.29470436E-02                    1_GWF-(1,26487)  1.12216803E-02                    1_GWF-(1,14781)
        227          5         27 -6.35818642E-02                    1_GWF-(1,26543)  9.88565736E-03                    1_GWF-(1,14858)
        228          5         28 -8.99486264E-02                    1_GWF-(1,26588)  8.42101023E-03                    1_GWF-(1,14781)
        229          5         29 -9.49541509E-02                    1_GWF-(1,26543)  4.02432937E-03                    1_GWF-(1,14781)
        230          5         30 -9.16929857E-02                    1_GWF-(1,26588)  6.71621553E-03                    1_GWF-(1,14780)
        231          5         31  6.00960693E-02                    1_GWF-(1,26588)  8.63112891E-03                    1_GWF-(1,14781)
        232          5         32 -7.11023564E-02                    1_GWF-(1,26623) -1.04840160E-02                    1_GWF-(1,14781)
        233          5         33  7.32672264E-02                    1_GWF-(1,26623)  5.78395707E-03                    1_GWF-(1,17300)
        234          5         34      0.12000636                    1_GWF-(1,26622)  2.76741930E-03                    1_GWF-(1,14867)
        235          5         35      0.10254210                    1_GWF-(1,26649)  8.17257151E-03                    1_GWF-(1,14780)
        236          5         36  6.99143331E-02                    1_GWF-(1,26622)  1.03453898E-02                    1_GWF-(1,14781)
        237          5         37  5.26611563E-02                    1_GWF-(1,26649)  5.94175989E-03                    1_GWF-(1,14780)
        238          5         38  5.35652588E-02                    1_GWF-(1,26666)  3.38965674E-03                    1_GWF-(1,17300)
        239          5         39 -7.27282992E-02                    1_GWF-(1,26666)  3.69967315E-03                    1_GWF-(1,14879)
        240          5         40 -7.46549180E-02                    1_GWF-(1,26665) -6.04593217E-03                    1_GWF-(1,14781)
        241          5         41  4.77020955E-02                    1_GWF-(1,26665)  7.88334865E-03                    1_GWF-(1,14781)
        242          5         42 -3.25231638E-02                    1_GWF-(1,26665) -6.29609687E-03                    1_GWF-(1,17300)
        243          5         43 -2.83508245E-02                    1_GWF-(1,20623)  6.61889680E-03                    1_GWF-(1,17300)
        244          5         44 -3.33823876E-02                    1_GWF-(1,26218) -5.88660924E-03                    1_GWF-(1,17300)
        245          5         45 -3.86592623E-02                    1_GWF-(1,26217)  8.12048734E-03                    1_GWF-(1,17300)
        246          5         46 -3.94973431E-02                    1_GWF-(1,26218) -7.15362060E-03                    1_GWF-(1,17300)
        247          5         47  3.95542718E-02                    1_GWF-(1,26218)  8.57119932E-03                    1_GWF-(1,17300)
        248          5         48  4.24927659E-02                    1_GWF-(1,26217)  7.76454892E-03                    1_GWF-(1,14781)
        249          5         49 -4.34773501E-02                    1_GWF-(1,26217)  8.80981841E-03                    1_GWF-(1,17300)
        250          5         50 -4.54451877E-02                    1_GWF-(1,26218)  1.15954676E-02                    1_GWF-(1,14781)
        251          6          1  4.48252996E-02                    1_GWF-(1,26218)  8.82235573E-03                    1_GWF-(1,17300)
        252          6          2  3.93354897E-02                    1_GWF-(1,26217)  9.52443187E-03                    1_GWF-(1,14781)
        253          6          3 -3.84195534E-02                    1_GWF-(1,26217)  8.68975373E-03                    1_GWF-(1,17300)
        254          6          4 -3.44523076E-02                    1_GWF-(1,26218) -8.25716462E-03                    1_GWF-(1,17300)
        255          6          5  3.36248493E-02                    1_GWF-(1,26218)  9.27020636E-03                    1_GWF-(1,17300)
        256          6          6  3.27619263E-02                    1_GWF-(1,26217) -7.29165265E-03                    1_GWF-(1,17300)
        257          6          7 -2.20084528E-02                    1_GWF-(1,26217)  8.02032408E-03                    1_GWF-(1,17300)
        258          6          8 -2.55309735E-02                    1_GWF-(1,26218) -7.63699316E-03                    1_GWF-(1,17300)
        259          6          9  2.33972092E-02                    1_GWF-(1,26665)  6.91691735E-03                    1_GWF-(1,17300)
        260          6         10 -3.53345736E-02                    1_GWF-(1,26665) -4.82078598E-03                    1_GWF-(1,17300)
        261          6         11  5.24038261E-02                    1_GWF-(1,26665)  3.60430518E-03                    1_GWF-(1,14879)
        262          6         12  4.97621481E-02                    1_GWF-(1,26666) -2.66880433E-03                    1_GWF-(1,17301)
        263          6         13 -4.12856270E-02                    1_GWF-(1,26666) -6.19027310E-03                    1_GWF-(1,17300)
        264          6         14 -3.64777504E-02                    1_GWF-(1,26649)  6.09308949E-03                    1_GWF-(1,17300)
        265          6         15  4.80264503E-02                    1_GWF-(1,26649)  5.74812454E-03                    1_GWF-(1,14780)
        266          6         16 -6.34703695E-02                    1_GWF-(1,26649)  3.97679272E-03                    1_GWF-(1,14781)
        267          6         17 -6.84536982E-02                    1_GWF-(1,26622)  4.38385676E-03                    1_GWF-(1,17300)
        268          6         18 -4.63453229E-02                    1_GWF-(1,26623) -5.36874817E-03                    1_GWF-(1,17300)
        269          6         19  4.29297554E-02                    1_GWF-(1,26623)  5.81082753E-03                    1_GWF-(1,17300)
        270          6         20 -3.81264600E-02                    1_GWF-(1,26588) -4.78199712E-03                    1_GWF-(1,14781)
        271          6         21 -5.00249120E-02                    1_GWF-(1,26543)  4.60677270E-03                    1_GWF-(1,14781)
        272          6         22 -6.06099411E-02                    1_GWF-(1,26588)  2.98413855E-03                    1_GWF-(1,14781)
        273          6         23 -4.67700907E-02                    1_GWF-(1,26543)  4.86209047E-03                    1_GWF-(1,14858)
        274          6         24  3.22181943E-02                    1_GWF-(1,26543)  6.54694357E-03                    1_GWF-(1,14781)
        275          6         25  3.82869097E-02                    1_GWF-(1,26487)  5.52868699E-03                    1_GWF-(1,14858)
        276          6         26  4.97484741E-02                    1_GWF-(1,26486)  2.61073794E-03                    1_GWF-(1,14781)
        277          6         27  5.54985346E-02                    1_GWF-(1,26487)  2.29811081E-03                    1_GWF-(1,14879)
        278          6         28  4.41570931E-02                    1_GWF-(1,26486)  5.49658350E-03                    1_GWF-(1,14858)
        279          6         29  4.37118841E-02                    1_GWF-(1,26487)  7.55579424E-03                    1_GWF-(1,14781)
        280          6         30  4.06513997E-02                    1_GWF-(1,26420)  6.63190932E-03                    1_GWF-(1,14858)
        281          6         31 -2.72714346E-02                    1_GWF-(1,24973)  7.76294844E-03                    1_GWF-(1,17300)
        282          6         32 -2.35514228E-02                    1_GWF-(1,24986) -8.14173238E-03                    1_GWF-(1,17300)
        283          6         33 -2.19923092E-02                    1_GWF-(1,25791)  9.04922728E-03                    1_GWF-(1,17300)
        284          6         34 -2.15862785E-02                    1_GWF-(1,25798) -1.02581796E-02                    1_GWF-(1,17300)
        285          6         35 -2.68749981E-02                    1_GWF-(1,26588)  1.07146426E-02                    1_GWF-(1,17300)
        286          6         36 -2.95401942E-02                    1_GWF-(1,26623) -9.85304904E-03                    1_GWF-(1,17300)
        287          6         37 -3.49994423E-02                    1_GWF-(1,26350)  8.58846869E-03                    1_GWF-(1,17300)
        288          6         38 -3.70437730E-02                    1_GWF-(1,26422) -7.78263040E-03                    1_GWF-(1,17300)
        289          6         39 -2.70180708E-02                    1_GWF-(1,26420)  5.46581696E-03                    1_GWF-(1,17300)
        290          6         40 -2.97122520E-02                    1_GWF-(1,26486) -3.05131583E-03                    1_GWF-(1,17300)
        291          6         41 -3.31153220E-02                    1_GWF-(1,26350)  3.25567149E-03                    1_GWF-(1,14858)
        292          6         42 -2.50910001E-02                    1_GWF-(1,26422)  2.85928844E-03                    1_GWF-(1,14781)
        293          6         43  2.41573335E-02                    1_GWF-(1,26422) -3.81057757E-03                    1_GWF-(1,17300)
        294          6         44  2.51027471E-02                    1_GWF-(1,26350)  5.73134909E-03                    1_GWF-(1,17300)
        295          6         45  1.94506366E-02                    1_GWF-(1,26486) -6.15657470E-03                    1_GWF-(1,17300)
        296          6         46  1.65337597E-02                    1_GWF-(1,26544)  6.20305962E-03                    1_GWF-(1,17300)
        297          6         47  1.42054359E-02                    1_GWF-(1,26421) -6.47810813E-03                    1_GWF-(1,17300)
        298          6         48  1.41358349E-02                    1_GWF-(1,26350)  6.48725715E-03                    1_GWF-(1,17300)
        299          6         49  1.15857646E-02                    1_GWF-(1,21321) -5.74425332E-03                    1_GWF-(1,17300)
        300          6         50  8.91666429E-03                    1_GWF-(1,26326)  6.01765034E-03                    1_GWF-(1,17300)
        301          7          1 -6.50328061E-03                    1_GWF-(1,26400) -5.83527793E-03                    1_GWF-(1,17300)
        302          7          2 -1.07183084E-02                    1_GWF-(1,26218)  6.93887190E-03                    1_GWF-(1,17300)
        303          7          3 -1.13807111E-02                    1_GWF-(1,26350) -6.93848182E-03                    1_GWF-(1,17300)
        304          7          4 -1.23279126E-02                    1_GWF-(1,26486)  7.40736478E-03                    1_GWF-(1,17300)
        305          7          5 -1.64465479E-02                    1_GWF-(1,26544) -7.32135726E-03                    1_GWF-(1,17300)
        306          7          6 -1.88657648E-02                    1_GWF-(1,26486)  6.66542349E-03                    1_GWF-(1,17300)
        307          7          7 -1.93351409E-02                    1_GWF-(1,26350) -4.95099236E-03                    1_GWF-(1,17300)
        308          7          8 -1.95113685E-02                    1_GWF-(1,26422)  2.97902747E-03                    1_GWF-(1,17300)
        309          7          9  1.80635850E-02                    1_GWF-(1,26422)  2.69100608E-03                    1_GWF-(1,14858)
        310          7         10  2.41818615E-02                    1_GWF-(1,26350)  2.97880380E-03                    1_GWF-(1,14781)
        311          7         11  2.24156296E-02                    1_GWF-(1,26486)  4.49250976E-03                    1_GWF-(1,17300)
        312          7         12  2.02824711E-02                    1_GWF-(1,26420) -6.73610581E-03                    1_GWF-(1,17300)
        313          7         13  2.86149588E-02                    1_GWF-(1,26422)  7.44710823E-03                    1_GWF-(1,17300)
        314          7         14  2.75798203E-02                    1_GWF-(1,26350) -8.54981781E-03                    1_GWF-(1,17300)
        315          7         15  1.91733581E-02                    1_GWF-(1,26587)  9.19916021E-03                    1_GWF-(1,17300)
        316          7         16  1.44275183E-02                    1_GWF-(1,26420) -8.84460779E-03                    1_GWF-(1,17300)
        317          7         17  1.41657681E-02                    1_GWF-(1,26422)  7.75430595E-03                    1_GWF-(1,17300)
        318          7         18 -1.45747491E-02                    1_GWF-(1,26588) -6.99026500E-03                    1_GWF-(1,17300)
        319          7         19  1.26583839E-02                    1_GWF-(1,24773)  6.47278324E-03                    1_GWF-(1,17300)
        320          7         20 -1.45530067E-02                    1_GWF-(1,26487) -5.65285178E-03                    1_GWF-(1,17300)
        321          7         21 -2.55433428E-02                    1_GWF-(1,26420)  5.17252767E-03                    1_GWF-(1,14781)
        322          7         22 -2.82432770E-02                    1_GWF-(1,26487) -2.35110530E-03                    1_GWF-(1,14781)
        323          7         23 -2.49914773E-02                    1_GWF-(1,26486) -1.62330304E-03                    1_GWF-(1,17300)
        324          7         24 -2.09708927E-02                    1_GWF-(1,26487)  3.40584953E-03                    1_GWF-(1,14781)
        325          7         25 -1.57279097E-02                    1_GWF-(1,26486) -4.02864810E-03                    1_GWF-(1,14781)
        326          7         26 -1.27669334E-02                    1_GWF-(1,26184)  4.63442430E-03                    1_GWF-(1,14781)
        327          7         27 -1.23439387E-02                    1_GWF-(1,26649)  3.38968682E-03                    1_GWF-(1,14856)
        328          7         28 -1.46274278E-02                    1_GWF-(1,26588)  2.20871460E-03                    1_GWF-(1,14781)
        329          7         29  1.78085346E-02                    1_GWF-(1,26588)  1.70512104E-03                    1_GWF-(1,14781)
        330          7         30 -1.73415970E-02                    1_GWF-(1,26588) -2.61522823E-03                    1_GWF-(1,14781)
        331          7         31  1.52530536E-02                    1_GWF-(1,26588)  3.16311266E-03                    1_GWF-(1,17300)
        332          7         32 -1.20001881E-02                    1_GWF-(1,26588) -3.04374816E-03                    1_GWF-(1,14781)
        333          7         33  1.14720031E-02                    1_GWF-(1,26666)  2.71354379E-03                    1_GWF-(1,17300)
        334          7         34  1.84689302E-02                    1_GWF-(1,26622)  1.00415752E-03                    1_GWF-(1,14867)
        335          7         35  1.90091201E-02                    1_GWF-(1,26623)  2.00236170E-03                    1_GWF-(1,14780)
        336          7         36  1.33631714E-02                    1_GWF-(1,26622)  2.51911218E-03                    1_GWF-(1,14781)
        337          7         37 -1.11323817E-02                    1_GWF-(1,26622) -2.47658492E-03                    1_GWF-(1,17300)
        338          7         38 -9.58736558E-03                    1_GWF-(1,26623)  1.39450890E-03                    1_GWF-(1,17300)
        339          7         39 -1.22739351E-02                    1_GWF-(1,26666)  1.14493067E-03                    1_GWF-(1,14781)
        340          7         40 -1.43334358E-02                    1_GWF-(1,26665) -1.52529543E-03                    1_GWF-(1,17300)
        341          7         41  1.10651489E-02                    1_GWF-(1,26665)  2.23938151E-03                    1_GWF-(1,17300)
        342          7         42 -8.21162840E-03                    1_GWF-(1,26665) -2.44703412E-03                    1_GWF-(1,17300)
        343          7         43 -6.43348095E-03                    1_GWF-(1,26666)  2.32215071E-03                    1_GWF-(1,17300)
        344          7         44  5.28394326E-03                    1_GWF-(1,26623) -2.05989941E-03                    1_GWF-(1,17300)
        345          7         45  6.63530513E-03                    1_GWF-(1,26665)  2.34917042E-03                    1_GWF-(1,17300)
        346          7         46  6.43896552E-03                    1_GWF-(1,26648)  2.31102765E-03                    1_GWF-(1,14781)
        347          7         47 -6.69934288E-03                    1_GWF-(1,25816) -2.29761159E-03                    1_GWF-(1,14781)
        348          7         48 -5.76493405E-03                    1_GWF-(1,26182)  3.25384790E-03                    1_GWF-(1,14781)
        349          7         49 -6.01338656E-03                    1_GWF-(1,26674) -3.18335197E-03                    1_GWF-(1,14781)
        350          7         50 -6.03919375E-03                    1_GWF-(1,26392)  3.74263833E-03                    1_GWF-(1,14781)
        351          8          1 -5.97794964E-03                    1_GWF-(1,11380) -3.03447853E-03                    1_GWF-(1,14781)
        352          8          2 -4.47155205E-03                    1_GWF-(1,26512)  3.47137939E-03                    1_GWF-(1,14781)
        353          8          3 -5.49361497E-03                    1_GWF-(1,26217) -2.65398671E-03                    1_GWF-(1,14781)
        354          8          4  6.13843064E-03                    1_GWF-(1,25816)  2.68735037E-03                    1_GWF-(1,14781)
        355          8          5 -5.19809096E-03                    1_GWF-(1,26672)  2.02398893E-03                    1_GWF-(1,17300)
        356          8          6 -5.61743648E-03                    1_GWF-(1,26513) -1.80589898E-03                    1_GWF-(1,17300)
        357          8          7  4.06476996E-03                    1_GWF-(1,20628)  1.98859113E-03                    1_GWF-(1,17300)
        358          8          8  4.57204430E-03                    1_GWF-(1,26666) -2.02109709E-03                    1_GWF-(1,17300)
        359          8          9  6.50932316E-03                    1_GWF-(1,26665)  1.82492487E-03                    1_GWF-(1,17300)
        360          8         10 -8.02044951E-03                    1_GWF-(1,26665) -1.27648700E-03                    1_GWF-(1,17300)
        361          8         11  1.03222861E-02                    1_GWF-(1,26665)  1.10104887E-03                    1_GWF-(1,14781)
        362          8         12 -8.41996530E-03                    1_GWF-(1,26665) -9.06497712E-04                    1_GWF-(1,17301)
        363          8         13 -7.12250801E-03                    1_GWF-(1,26663) -1.86655879E-03                    1_GWF-(1,17300)
        364          8         14 -7.71402843E-03                    1_GWF-(1,26623)  1.73016007E-03                    1_GWF-(1,17300)
        365          8         15 -9.33347453E-03                    1_GWF-(1,26622)  1.40816476E-03                    1_GWF-(1,14780)
        366          8         16 -1.14241220E-02                    1_GWF-(1,26623)  9.97999205E-04                    1_GWF-(1,14781)
        367          8         17 -1.04377498E-02                    1_GWF-(1,26622)  1.56620562E-03                    1_GWF-(1,17300)
        368          8         18 -7.39512405E-03                    1_GWF-(1,26666) -1.85139454E-03                    1_GWF-(1,17300)
        369          8         19  7.68369619E-03                    1_GWF-(1,26588)  1.87681997E-03                    1_GWF-(1,17300)
        370          8         20 -8.87276245E-03                    1_GWF-(1,26588) -1.74063048E-03                    1_GWF-(1,14781)
        371          8         21 -1.08292364E-02                    1_GWF-(1,26543)  1.38937063E-03                    1_GWF-(1,14781)
        372          8         22 -1.13073194E-02                    1_GWF-(1,26588)  8.11842930E-04                    1_GWF-(1,14781)
        373          8         23 -7.76499512E-03                    1_GWF-(1,26543) -1.66186838E-03                    1_GWF-(1,17300)
        374          8         24 -5.37055616E-03                    1_GWF-(1,26588)  2.31758422E-03                    1_GWF-(1,14781)
        375          8         25 -5.66229001E-03                    1_GWF-(1,26649) -2.32326240E-03                    1_GWF-(1,14781)
        376          8         26  7.82357668E-03                    1_GWF-(1,26486)  2.05363353E-03                    1_GWF-(1,14781)
        377          8         27  9.17841401E-03                    1_GWF-(1,26487) -8.36385336E-04                    1_GWF-(1,17300)
        378          8         28  1.07289349E-02                    1_GWF-(1,26486)  9.10339610E-04                    1_GWF-(1,14856)
        379          8         29  1.13279574E-02                    1_GWF-(1,26487)  2.36293378E-03                    1_GWF-(1,14781)
        380          8         30  1.00050176E-02                    1_GWF-(1,26420) -2.33668393E-03                    1_GWF-(1,14781)
        381          8         31  5.93302728E-03                    1_GWF-(1,26487)  2.40071207E-03                    1_GWF-(1,17300)
        382          8         32 -4.78173443E-03                    1_GWF-(1,25006) -2.42513641E-03                    1_GWF-(1,17300)
        383          8         33 -4.41104575E-03                    1_GWF-(1,25683)  2.52743432E-03                    1_GWF-(1,17300)
        384          8         34 -4.10829550E-03                    1_GWF-(1,26146) -2.63899785E-03                    1_GWF-(1,17300)
        385          8         35 -5.37435601E-03                    1_GWF-(1,26588)  2.59411224E-03                    1_GWF-(1,17300)
        386          8         36 -6.46877010E-03                    1_GWF-(1,26623) -2.36853069E-03                    1_GWF-(1,17300)
        387          8         37 -7.09673117E-03                    1_GWF-(1,26350)  2.08017929E-03                    1_GWF-(1,17300)
        388          8         38 -7.45305914E-03                    1_GWF-(1,26422) -1.74514904E-03                    1_GWF-(1,17300)
        389          8         39 -5.58267249E-03                    1_GWF-(1,26420)  1.20261085E-03                    1_GWF-(1,17300)
        390          8         40 -6.05115219E-03                    1_GWF-(1,26486)  9.75808006E-04                    1_GWF-(1,14781)
        391          8         41 -6.98460225E-03                    1_GWF-(1,26350)  7.44298743E-04                    1_GWF-(1,14856)
        392          8         42 -5.37746117E-03                    1_GWF-(1,26422)  7.07607844E-04                    1_GWF-(1,14781)
        393          8         43  5.63729489E-03                    1_GWF-(1,26422) -1.07781945E-03                    1_GWF-(1,17300)
        394          8         44  5.96063830E-03                    1_GWF-(1,26350)  1.47924260E-03                    1_GWF-(1,17300)
        395          8         45  4.50922715E-03                    1_GWF-(1,26486) -1.50486774E-03                    1_GWF-(1,17300)
        396          8         46  3.67862438E-03                    1_GWF-(1,26544)  1.52941569E-03                    1_GWF-(1,17300)
        397          8         47  2.97961558E-03                    1_GWF-(1,26422) -1.50110401E-03                    1_GWF-(1,17300)
        398          8         48  2.92455795E-03                    1_GWF-(1,26350)  1.43736188E-03                    1_GWF-(1,17300)
        399          8         49  2.31390012E-03                    1_GWF-(1,26422) -1.22712712E-03                    1_GWF-(1,17300)
        400          8         50  1.61669489E-03                    1_GWF-(1,26326)  1.18915075E-03                    1_GWF-(1,17300)
        401          9          1 -1.43613662E-03                    1_GWF-(1,26350) -1.20139142E-03                    1_GWF-(1,17300)
        402          9          2 -2.20372019E-03                    1_GWF-(1,26422)  1.38842604E-03                    1_GWF-(1,17300)
        403          9          3 -2.53122650E-03                    1_GWF-(1,26350) -1.41752531E-03                    1_GWF-(1,17300)
        404          9          4 -2.58410067E-03                    1_GWF-(1,26486)  1.50177277E-03                    1_GWF-(1,17300)
        405          9          5 -3.53228038E-03                    1_GWF-(1,26544) -1.43132017E-03                    1_GWF-(1,17300)
        406          9          6 -4.19886946E-03                    1_GWF-(1,26486)  1.36686221E-03                    1_GWF-(1,17300)
        407          9          7 -4.59892293E-03                    1_GWF-(1,26350) -1.00808211E-03                    1_GWF-(1,17300)
        408          9          8 -4.52352910E-03                    1_GWF-(1,26422)  5.68033874E-04                    1_GWF-(1,17300)
        409          9          9  4.16892944E-03                    1_GWF-(1,26422)  6.13165127E-04                    1_GWF-(1,14856)
        410          9         10  5.27491266E-03                    1_GWF-(1,26350)  8.76641841E-04                    1_GWF-(1,14781)
        411          9         11  4.21447188E-03                    1_GWF-(1,26486)  9.40055833E-04                    1_GWF-(1,17300)
        412          9         12  4.58409018E-03                    1_GWF-(1,26420) -1.34113329E-03                    1_GWF-(1,17300)
        413          9         13  5.54621545E-03                    1_GWF-(1,26422)  1.40437053E-03                    1_GWF-(1,17300)
        414          9         14  4.83154938E-03                    1_GWF-(1,26350) -1.16463535E-03                    1_GWF-(1,17300)
        415          9         15  6.57296991E-03                    1_GWF-(1,26623)  7.25898271E-04                    1_GWF-(1,14781)
        416          9         16  6.38232108E-03                    1_GWF-(1,26486)  8.38788305E-04                    1_GWF-(1,17300)
        417          9         17  4.86646357E-03                    1_GWF-(1,26649) -1.47382315E-03                    1_GWF-(1,17300)
        418          9         18 -3.69478912E-03                    1_GWF-(1,26588)  1.59527532E-03                    1_GWF-(1,17300)
        419          9         19 -2.85724227E-03                    1_GWF-(1,26648) -1.58087459E-03                    1_GWF-(1,17300)
        420          9         20  2.97367960E-03                    1_GWF-(1,24973)  1.56735851E-03                    1_GWF-(1,17300)
        421          9         21  2.98575723E-03                    1_GWF-(1,24988) -1.44267641E-03                    1_GWF-(1,17300)
        422          9         22 -3.58560699E-03                    1_GWF-(1,26420)  1.44206622E-03                    1_GWF-(1,14781)
        423          9         23 -2.65322071E-03                    1_GWF-(1,26586) -1.41117685E-03                    1_GWF-(1,14781)
        424          9         24 -2.62008310E-03                    1_GWF-(1,26149)  1.36760704E-03                    1_GWF-(1,14781)
        425          9         25 -2.84146187E-03                    1_GWF-(1,26174) -1.17815516E-03                    1_GWF-(1,14781)
        426          9         26 -2.60213102E-03                    1_GWF-(1,26420)  1.01462366E-03                    1_GWF-(1,14781)
        427          9         27  3.43749568E-03                    1_GWF-(1,26420)  5.17096286E-04                    1_GWF-(1,14856)
        428          9         28  4.32543960E-03                    1_GWF-(1,26487)  4.51304768E-04                    1_GWF-(1,14856)
        429          9         29  3.45709164E-03                    1_GWF-(1,26486)  9.41516790E-04                    1_GWF-(1,14781)
        430          9         30  3.08772185E-03                    1_GWF-(1,26487) -7.96882868E-04                    1_GWF-(1,14781)
        431          9         31 -2.84756284E-03                    1_GWF-(1,26622)  6.40216569E-04                    1_GWF-(1,17300)
        432          9         32 -3.57436889E-03                    1_GWF-(1,26649) -2.93245499E-04                    1_GWF-(1,17300)
        433          9         33  3.35382283E-03                    1_GWF-(1,26649) -3.78846200E-04                    1_GWF-(1,14781)
        434          9         34  4.33433952E-03                    1_GWF-(1,26622)  7.13189247E-04                    1_GWF-(1,14781)
        435          9         35  3.63577253E-03                    1_GWF-(1,26543) -7.09001443E-04                    1_GWF-(1,17300)
        436          9         36  2.83369352E-03                    1_GWF-(1,26588)  5.99053442E-04                    1_GWF-(1,17300)
        437          9         37  3.00334402E-03                    1_GWF-(1,26665) -4.45505775E-04                    1_GWF-(1,17300)
        438          9         38  2.89694333E-03                    1_GWF-(1,26666) -2.68478980E-04                    1_GWF-(1,14781)
        439          9         39 -3.06947410E-03                    1_GWF-(1,26666)  4.01838008E-04                    1_GWF-(1,14781)
        440          9         40 -2.97834521E-03                    1_GWF-(1,26665) -4.39006160E-04                    1_GWF-(1,17300)
        441          9         41  2.13270340E-03                    1_GWF-(1,26665)  5.34466733E-04                    1_GWF-(1,17300)
        442          9         42 -1.62144184E-03                    1_GWF-(1,26665) -5.68781063E-04                    1_GWF-(1,17300)
        443          9         43 -1.35832188E-03                    1_GWF-(1,26666)  5.30514712E-04                    1_GWF-(1,17300)
        444          9         44  1.15477573E-03                    1_GWF-(1,26623) -4.81224736E-04                    1_GWF-(1,17300)
        445          9         45  1.41803172E-03                    1_GWF-(1,26665)  5.21553708E-04                    1_GWF-(1,17300)
        446          9         46  1.44003661E-03                    1_GWF-(1,26672)  6.86107414E-04                    1_GWF-(1,14781)
        447          9         47 -1.41707496E-03                    1_GWF-(1,25816) -6.70004310E-04                    1_GWF-(1,14781)
        448          9         48  1.36460009E-03                    1_GWF-(1,26623)  8.45145609E-04                    1_GWF-(1,14781)
        449          9         49 -1.30788834E-03                    1_GWF-(1,26674) -7.56987521E-04                    1_GWF-(1,14781)
        450          9         50 -1.06397306E-03                    1_GWF-(1,26392)  8.50065232E-04                    1_GWF-(1,14781)
        451         10          1 -1.18726989E-03                    1_GWF-(1,26446) -7.21646846E-04                    1_GWF-(1,14781)
        452         10          2  1.05762054E-03                    1_GWF-(1,26674)  7.97501374E-04                    1_GWF-(1,14781)
        453         10          3 -1.29232809E-03                    1_GWF-(1,26623)  6.34673749E-04                    1_GWF-(1,14856)
        454         10          4  1.33488841E-03                    1_GWF-(1,25816)  6.36685960E-04                    1_GWF-(1,14781)
        455         10          5 -1.24852745E-03                    1_GWF-(1,26672)  4.99218963E-04                    1_GWF-(1,14856)
        456         10          6 -1.15802291E-03                    1_GWF-(1,26513) -4.09085973E-04                    1_GWF-(1,17300)
        457         10          7  8.29070663E-04                    1_GWF-(1,21367)  4.42504687E-04                    1_GWF-(1,17300)
        458         10          8  1.05099950E-03                    1_GWF-(1,26666) -4.64983496E-04                    1_GWF-(1,17300)
        459         10          9  1.42993966E-03                    1_GWF-(1,26665)  4.28812988E-04                    1_GWF-(1,17300)
        460         10         10 -1.67845502E-03                    1_GWF-(1,26665) -3.46824337E-04                    1_GWF-(1,17300)
        461         10         11  2.20207657E-03                    1_GWF-(1,26665)  3.08605223E-04                    1_GWF-(1,14781)
        462         10         12 -2.29810552E-03                    1_GWF-(1,26665) -2.19020608E-04                    1_GWF-(1,14781)
[...]
        785         16         35 -1.38184764E-05                    1_GWF-(1,26486) -3.86914250E-06                    1_GWF-(1,17300)
        786         16         36 -1.51796033E-05                    1_GWF-(1,26350)  2.52634839E-06                    1_GWF-(1,14856)
        787         16         37 -2.02969971E-05                    1_GWF-(1,26422)  2.86895932E-06                    1_GWF-(1,14781)
        788         16         38 -1.53839645E-05                    1_GWF-(1,26350)  2.13901626E-06                    1_GWF-(1,14856)
        789         16         39 -1.43312422E-05                    1_GWF-(1,26486)  1.93803626E-06                    1_GWF-(1,17300)
        790         16         40 -9.76813847E-06                    1_GWF-(1,26350) -3.14944820E-06                    1_GWF-(1,17300)
        791         16         41 -1.13820696E-05                    1_GWF-(1,26422)  3.54806582E-06                    1_GWF-(1,17300)
        792         16         42  9.76308554E-06                    1_GWF-(1,26486) -4.03864830E-06                    1_GWF-(1,17300)
        793         16         43  9.18388023E-06                    1_GWF-(1,26544)  3.93337200E-06                    1_GWF-(1,17300)
        794         16         44  1.41765711E-05                    1_GWF-(1,26486) -2.27391349E-06                    1_GWF-(1,17300)
        795         16         45  1.68531614E-05                    1_GWF-(1,26487)  8.95547045E-07                    1_GWF-(1,14856)
        796         16         46  1.31457466E-05                    1_GWF-(1,26486)  2.14665877E-06                    1_GWF-(1,17300)
        797         16         47  8.89601394E-06                    1_GWF-(1,26487) -2.80545591E-06                    1_GWF-(1,17300)
        798         16         48  5.64954911E-06                    1_GWF-(1,26420)  2.95582287E-06                    1_GWF-(1,17300)
        799         16         49  4.70907162E-06                    1_GWF-(1,26588) -2.65053810E-06                    1_GWF-(1,17300)
        800         16         50  4.98728875E-06                    1_GWF-(1,26543)  2.18477080E-06                    1_GWF-(1,17300)
        801         17          1  5.78303870E-06                    1_GWF-(1,26588) -2.18907299E-06                    1_GWF-(1,17300)
        802         17          2 -7.81185914E-06                    1_GWF-(1,26588)  1.35881399E-06                    1_GWF-(1,17300)
        803         17          3  7.14467778E-06                    1_GWF-(1,26588)  7.69055441E-07                    1_GWF-(1,14856)
        804         17          4  6.59382200E-06                    1_GWF-(1,26622) -2.22671583E-06                    1_GWF-(1,17300)
        805         17          5 -7.24703157E-06                    1_GWF-(1,26486)  3.05839551E-06                    1_GWF-(1,17300)
        806         17          6 -8.93187808E-06                    1_GWF-(1,26487) -2.70927407E-06                    1_GWF-(1,17300)
        807         17          7 -1.01059103E-05                    1_GWF-(1,26486)  2.21481920E-06                    1_GWF-(1,17300)
        808         17          8 -9.59911217E-06                    1_GWF-(1,26487)  6.70175486E-07                    1_GWF-(1,14869)
        809         17          9  8.24591173E-06                    1_GWF-(1,26487) -1.98048466E-06                    1_GWF-(1,17300)
        810         17         10  8.51929427E-06                    1_GWF-(1,26420)  3.09388831E-06                    1_GWF-(1,17300)
        811         17         11  7.61529015E-06                    1_GWF-(1,26487) -3.87841718E-06                    1_GWF-(1,17300)
        812         17         12  1.03410976E-05                    1_GWF-(1,26420)  3.45983818E-06                    1_GWF-(1,17300)
        813         17         13  9.43630247E-06                    1_GWF-(1,26487) -1.98433455E-06                    1_GWF-(1,17300)
        814         17         14  1.17641684E-05                    1_GWF-(1,26543)  1.25918108E-06                    1_GWF-(1,14781)
        815         17         15  1.11418747E-05                    1_GWF-(1,26588)  2.45347049E-06                    1_GWF-(1,17300)
        816         17         16  1.21851878E-05                    1_GWF-(1,26486) -2.96584287E-06                    1_GWF-(1,17300)
        817         17         17  9.25433050E-06                    1_GWF-(1,26544)  2.82937646E-06                    1_GWF-(1,17300)
        818         17         18  9.34326158E-06                    1_GWF-(1,26486) -2.50292553E-06                    1_GWF-(1,17300)
        819         17         19  8.64973244E-06                    1_GWF-(1,26350)  1.56354217E-06                    1_GWF-(1,14781)
        820         17         20 -9.29941547E-06                    1_GWF-(1,26350)  1.72189389E-06                    1_GWF-(1,14856)
        821         17         21 -1.03790845E-05                    1_GWF-(1,26422)  1.78571938E-06                    1_GWF-(1,14781)
        822         17         22 -9.14208427E-06                    1_GWF-(1,26420)  1.93853434E-06                    1_GWF-(1,17300)
        823         17         23 -1.07699889E-05                    1_GWF-(1,26422) -2.28880690E-06                    1_GWF-(1,17300)
        824         17         24 -1.01808329E-05                    1_GWF-(1,26350)  2.37391487E-06                    1_GWF-(1,17300)
        825         17         25 -6.64066269E-06                    1_GWF-(1,26422) -2.52833252E-06                    1_GWF-(1,17300)
        826         17         26 -6.82193202E-06                    1_GWF-(1,26665)  2.35398766E-06                    1_GWF-(1,17300)
        827         17         27 -6.89089271E-06                    1_GWF-(1,26666)  1.71554229E-06                    1_GWF-(1,14856)
        828         17         28 -7.84680895E-06                    1_GWF-(1,26665)  1.31887274E-06                    1_GWF-(1,14781)
        829         17         29 -7.18673774E-06                    1_GWF-(1,26666)  1.27607734E-06                    1_GWF-(1,17300)
        830         17         30 -6.30815221E-06                    1_GWF-(1,26665) -1.75403553E-06                    1_GWF-(1,17300)
        831         17         31 -5.31966150E-06                    1_GWF-(1,24686)  1.93934915E-06                    1_GWF-(1,17300)
        832         17         32 -4.41245358E-06                    1_GWF-(1,24826) -1.97383895E-06                    1_GWF-(1,17300)
        833         17         33 -3.88792016E-06                    1_GWF-(1,25011)  2.16495992E-06                    1_GWF-(1,14781)
        834         17         34 -3.49954835E-06                     1_GWF-(1,1185) -2.19975148E-06                    1_GWF-(1,14781)
        835         17         35  4.76547720E-06                    1_GWF-(1,26588)  2.27209264E-06                    1_GWF-(1,14781)
        836         17         36  4.48891094E-06                    1_GWF-(1,26543)  1.56886081E-06                    1_GWF-(1,14856)
        837         17         37  6.26024156E-06                    1_GWF-(1,26487)  6.77631983E-07                    1_GWF-(1,14781)
        838         17         38  7.37944106E-06                    1_GWF-(1,26486)  8.14524119E-07                    1_GWF-(1,14781)
        839         17         39  6.10730759E-06                    1_GWF-(1,26487) -1.50618667E-06                    1_GWF-(1,14781)
        840         17         40 -3.83192950E-06                    1_GWF-(1,26487)  1.61796165E-06                    1_GWF-(1,14781)
        841         17         41 -3.44135392E-06                    1_GWF-(1,26486) -1.37864100E-06                    1_GWF-(1,17300)
        842         17         42 -3.19151583E-06                    1_GWF-(1,26544)  1.15502373E-06                    1_GWF-(1,17300)
        843         17         43 -4.07111614E-06                    1_GWF-(1,26622) -9.66459561E-07                    1_GWF-(1,17300)
        844         17         44 -4.74091937E-06                    1_GWF-(1,26623)  3.34669418E-07                    1_GWF-(1,14856)
        845         17         45 -4.91592130E-06                    1_GWF-(1,26622)  7.48762818E-07                    1_GWF-(1,14781)
        846         17         46 -4.00901756E-06                    1_GWF-(1,26649) -1.07893139E-06                    1_GWF-(1,17300)
        847         17         47  3.79575867E-06                    1_GWF-(1,26649)  1.34477937E-06                    1_GWF-(1,17300)
        848         17         48  2.64192362E-06                    1_GWF-(1,26622) -9.86111350E-07                    1_GWF-(1,17300)
        849         17         49  2.87701340E-06                    1_GWF-(1,26649)  8.78318794E-07                    1_GWF-(1,17300)
        850         17         50  3.69682890E-06                    1_GWF-(1,26588)  8.65687162E-07                    1_GWF-(1,14781)
        851         18          1 -5.09808760E-06                    1_GWF-(1,26588)  1.04762685E-06                    1_GWF-(1,14856)
        852         18          2 -3.91846006E-06                    1_GWF-(1,26649)  2.86793554E-07                    1_GWF-(1,10250)
        853         18          3 -3.12326554E-06                    1_GWF-(1,26622)  1.17441552E-06                    1_GWF-(1,14781)
        854         18          4  2.54475029E-06                    1_GWF-(1,25814)  1.25109463E-06                    1_GWF-(1,14856)
        855         18          5  3.58541066E-06                    1_GWF-(1,26623)  1.80392727E-06                    1_GWF-(1,14781)
        856         18          6  3.66038998E-06                    1_GWF-(1,26622) -1.50091140E-06                    1_GWF-(1,14781)
        857         18          7  4.17518594E-06                    1_GWF-(1,26623) -3.89243354E-07                    1_GWF-(1,17300)
        858         18          8  4.82171198E-06                    1_GWF-(1,26622)  1.17553008E-06                    1_GWF-(1,14781)
        859         18          9  4.31914332E-06                    1_GWF-(1,26649)  1.48509567E-06                    1_GWF-(1,14856)
        860         18         10  2.65468642E-06                    1_GWF-(1,26543)  9.76551491E-07                    1_GWF-(1,14781)
        861         18         11  2.86780773E-06                    1_GWF-(1,20584)  7.30028259E-07                    1_GWF-(1,17300)
        862         18         12  2.78332737E-06                    1_GWF-(1,20520) -8.90643395E-07                    1_GWF-(1,17300)
        863         18         13 -3.53384766E-06                    1_GWF-(1,26486)  6.75732986E-07                    1_GWF-(1,17300)
        864         18         14 -5.25185751E-06                    1_GWF-(1,26487)  6.27358572E-07                    1_GWF-(1,14856)
        865         18         15 -5.31391574E-06                    1_GWF-(1,26486) -5.15498744E-07                    1_GWF-(1,17300)
        866         18         16 -4.05312945E-06                    1_GWF-(1,26487)  1.12906855E-06                    1_GWF-(1,17300)
        867         18         17 -3.28910181E-06                    1_GWF-(1,26486) -1.12742097E-06                    1_GWF-(1,17300)
        868         18         18 -2.51054644E-06                    1_GWF-(1,26487)  1.01029938E-06                    1_GWF-(1,17300)
        869         18         19 -3.05919423E-06                    1_GWF-(1,26666) -8.17699049E-07                    1_GWF-(1,14781)
        870         18         20  3.47528433E-06                    1_GWF-(1,26666)  6.42652925E-07                    1_GWF-(1,14781)
        871         18         21  5.16868800E-06                    1_GWF-(1,26665)  3.14992731E-07                    1_GWF-(1,14856)
        872         18         22 -4.64647325E-06                    1_GWF-(1,26665) -6.85371940E-07                    1_GWF-(1,17300)
        873         18         23  3.01373166E-06                    1_GWF-(1,24789)  9.70356124E-07                    1_GWF-(1,14781)
        874         18         24  2.42402639E-06                    1_GWF-(1,26666)  1.11173563E-06                    1_GWF-(1,14856)
        875         18         25 -2.41375494E-06                    1_GWF-(1,26623)  1.42738492E-06                    1_GWF-(1,14781)
        876         18         26  2.15123640E-06                    1_GWF-(1,26148) -1.41557976E-06                    1_GWF-(1,14781)
        877         18         27  2.95438608E-06                    1_GWF-(1,26350)  1.54807879E-06                    1_GWF-(1,14781)
        878         18         28  3.32163778E-06                    1_GWF-(1,26589)  1.26219245E-06                    1_GWF-(1,14856)
        879         18         29  3.67958524E-06                    1_GWF-(1,26588)  9.33493402E-07                    1_GWF-(1,17300)
        880         18         30  3.63009651E-06                    1_GWF-(1,26665) -5.33198546E-07                    1_GWF-(1,17300)
        881         18         31  3.48467915E-06                    1_GWF-(1,26588)  4.12395918E-07                    1_GWF-(1,14856)
        882         18         32  4.15039440E-06                    1_GWF-(1,26543)  7.98225845E-07                    1_GWF-(1,14781)
        883         18         33  4.30673442E-06                    1_GWF-(1,26588) -8.96849428E-07                    1_GWF-(1,17300)
        884         18         34 -3.42826724E-06                    1_GWF-(1,26588)  8.34821737E-07                    1_GWF-(1,17300)
        885         18         35 -3.82864784E-06                    1_GWF-(1,26420) -6.14905839E-07                    1_GWF-(1,17300)
        886         18         36 -3.45199255E-06                    1_GWF-(1,26588)  3.22228279E-07                    1_GWF-(1,14856)
        887         18         37 -3.27597630E-06                    1_GWF-(1,26420)  4.84322117E-07                    1_GWF-(1,14781)
        888         18         38 -3.34425935E-06                    1_GWF-(1,26487) -5.85712115E-07                    1_GWF-(1,17300)
        889         18         39 -3.88602394E-06                    1_GWF-(1,26486)  5.40245672E-07                    1_GWF-(1,17300)
        890         18         40 -2.47349573E-06                    1_GWF-(1,26544) -3.61984403E-07                    1_GWF-(1,17300)
        891         18         41 -2.94985394E-06                    1_GWF-(1,26422)  4.65836175E-07                    1_GWF-(1,14856)
        892         18         42 -2.66037967E-06                    1_GWF-(1,26350)  4.94288143E-07                    1_GWF-(1,14781)
        893         18         43  2.27591024E-06                    1_GWF-(1,26350)  3.66469532E-07                    1_GWF-(1,14856)
        894         18         44  2.67856643E-06                    1_GWF-(1,26422)  4.99232470E-07                    1_GWF-(1,17300)
        895         18         45  2.29963002E-06                    1_GWF-(1,26420) -2.89277067E-07                    1_GWF-(1,17300)
        896         18         46  2.54516025E-06                    1_GWF-(1,26487)  2.87186125E-07                    1_GWF-(1,14856)
        897         18         47  2.41684221E-06                    1_GWF-(1,26486)  2.82058071E-07                    1_GWF-(1,14781)
        898         18         48  1.31084783E-06                    1_GWF-(1,26350) -4.30223232E-07                    1_GWF-(1,17300)
        899         18         49  1.21748013E-06                    1_GWF-(1,26422)  4.76154169E-07                    1_GWF-(1,17300)
        900         18         50  8.66072141E-07                    1_GWF-(1,26350) -4.69962150E-07                    1_GWF-(1,17300)
        901         19          1 -9.15096827E-07                    1_GWF-(1,26350)  8.43396094E-07                    1_GWF-(1,17300)
 --------------------------------------------------------------------------------------------------------------------------------------


 UBDSV1 SAVING     FLOW-JA-FACE ON UNIT   1020 AT TIME STEP      1, STRESS PERIOD      1
 UBDSV06 SAVING       DATA-SPDIS IN MODEL ML               PACKAGE NPF             CONNECTED TO MODEL ML               PACKAGE NPF              ON UNIT   1020 AT TIME STEP      1, STRESS PERIOD      1
 UBDSV06 SAVING              WEL IN MODEL ML               PACKAGE ML              CONNECTED TO MODEL ML               PACKAGE WEL_0            ON UNIT   1020 AT TIME STEP      1, STRESS PERIOD      1
 UBDSV06 SAVING              DRN IN MODEL ML               PACKAGE ML              CONNECTED TO MODEL ML               PACKAGE DRN_0            ON UNIT   1020 AT TIME STEP      1, STRESS PERIOD      1
 UBDSV06 SAVING              RIV IN MODEL ML               PACKAGE ML              CONNECTED TO MODEL ML               PACKAGE RIV_0            ON UNIT   1020 AT TIME STEP      1, STRESS PERIOD      1
 UBDSV06 SAVING              GHB IN MODEL ML               PACKAGE ML              CONNECTED TO MODEL ML               PACKAGE GHB_0            ON UNIT   1020 AT TIME STEP      1, STRESS PERIOD      1
 UBDSV06 SAVING              RCH IN MODEL ML               PACKAGE ML              CONNECTED TO MODEL ML               PACKAGE RCHA_0           ON UNIT   1020 AT TIME STEP      1, STRESS PERIOD      1

 HEAD WILL BE SAVED ON UNIT 1021 AT END OF TIME STEP    1, STRESS PERIOD    1


  VOLUME BUDGET FOR ENTIRE MODEL AT END OF TIME STEP    1, STRESS PERIOD   1
  ---------------------------------------------------------------------------------------------------

     CUMULATIVE VOLUME      L**3       RATES FOR THIS TIME STEP      L**3/T          PACKAGE NAME    
     ------------------                 ------------------------                     ----------------

           IN:                                      IN:
           ---                                      ---
                 WEL =           0.0000                   WEL =           0.0000     WEL_0           
                 DRN =           0.0000                   DRN =           0.0000     DRN_0           
                 RIV =           2.3820                   RIV =           1.1910     RIV_0           
                 GHB =           5.3687                   GHB =           2.6844     GHB_0           
                 RCH =           0.5520                   RCH =           0.2760     RCHA_0          

            TOTAL IN =           8.3027              TOTAL IN =           4.1514

          OUT:                                     OUT:
          ----                                     ----
                 WEL =           0.4153                   WEL =           0.2076     WEL_0           
                 DRN =           0.4501                   DRN =           0.2251     DRN_0           
                 RIV =           7.4315                   RIV =           3.7157     RIV_0           
                 GHB =       5.9109E-03                   GHB =       2.9555E-03     GHB_0           
                 RCH =           0.0000                   RCH =           0.0000     RCHA_0          

           TOTAL OUT =           8.3028             TOTAL OUT =           4.1514

            IN - OUT =      -2.3709E-05              IN - OUT =      -1.1854E-05

 PERCENT DISCREPANCY =          -0.00     PERCENT DISCREPANCY =          -0.00




         TIME SUMMARY AT END OF TIME STEP    1 IN STRESS PERIOD    1
                    SECONDS     MINUTES      HOURS       DAYS        YEARS
                    -----------------------------------------------------------
   TIME STEP LENGTH  2.0000     3.33333E-02 5.55556E-04 2.31481E-05 6.33762E-08
 STRESS PERIOD TIME  2.0000     3.33333E-02 5.55556E-04 2.31481E-05 6.33762E-08
         TOTAL TIME  2.0000     3.33333E-02 5.55556E-04 2.31481E-05 6.33762E-08


end timestep

