                                   MODFLOW 6
                U.S. GEOLOGICAL SURVEY MODULAR HYDROLOGIC MODEL
                          GROUNDWATER FLOW MODEL (GWF)
                            VERSION 6.2.2 07/30/2021

  MODFLOW 6 compiled Mar  4 2022 18:19:04 with GFORTRAN compiler (ver. 6.3.0)

This software has been approved for release by the U.S. Geological 
Survey (USGS). Although the software has been subjected to rigorous 
review, the USGS reserves the right to update the software as needed 
pursuant to further analysis and review. No warranty, expressed or 
implied, is made by the USGS or the U.S. Government as to the 
functionality of the software and related material nor shall the 
fact of release constitute any such warranty. Furthermore, the 
software is released on condition that neither the USGS nor the U.S. 
Government shall be held liable for any damages resulting from its 
authorized or unauthorized use. Also refer to the USGS Water 
Resources Software User Rights Notice for complete use, copyright, 
and distribution information.


System command used to initiate simulation:
mf6

MODFLOW was compiled using uniform precision.

Real Variables
  KIND: 8
  TINY (smallest non-zero value):    2.225074-308
  HUGE (largest value):    1.797693+308
  PRECISION: 15
  BIT SIZE: 64

Integer Variables
  KIND: 4
  HUGE (largest value): 2147483647
  BIT SIZE: 32

Long Integer Variables
  KIND: 8
  HUGE (largest value): 9223372036854775807
  BIT SIZE: 64

Logical Variables
  KIND: 4
  BIT SIZE: 32


 OPENED ./ml.disv
 FILE TYPE:DISV6                  UNIT 1005   STATUS:OLD                 
 FORMAT:FORMATTED              ACCESS:SEQUENTIAL          
 ACTION:READ                


 OPENED ./ml.ic
 FILE TYPE:IC6                    UNIT 1006   STATUS:OLD                 
 FORMAT:FORMATTED              ACCESS:SEQUENTIAL          
 ACTION:READ                


 OPENED ./ml.npf
 FILE TYPE:NPF6                   UNIT 1007   STATUS:OLD                 
 FORMAT:FORMATTED              ACCESS:SEQUENTIAL          
 ACTION:READ                


 OPENED ./ml.ghb
 FILE TYPE:GHB6                   UNIT 1008   STATUS:OLD                 
 FORMAT:FORMATTED              ACCESS:SEQUENTIAL          
 ACTION:READ                


 OPENED ./ml.rcha
 FILE TYPE:RCH6                   UNIT 1009   STATUS:OLD                 
 FORMAT:FORMATTED              ACCESS:SEQUENTIAL          
 ACTION:READ                


 OPENED ./ml.obs
 FILE TYPE:OBS6                   UNIT 1010   STATUS:OLD                 
 FORMAT:FORMATTED              ACCESS:SEQUENTIAL          
 ACTION:READ                


 OPENED ./ml.oc
 FILE TYPE:OC6                    UNIT 1011   STATUS:OLD                 
 FORMAT:FORMATTED              ACCESS:SEQUENTIAL          
 ACTION:READ                


 OPENED ml.wel
 FILE TYPE:WEL6                   UNIT 1012   STATUS:OLD                 
 FORMAT:FORMATTED              ACCESS:SEQUENTIAL          
 ACTION:READ                


 OPENED ml.drn
 FILE TYPE:DRN6                   UNIT 1013   STATUS:OLD                 
 FORMAT:FORMATTED              ACCESS:SEQUENTIAL          
 ACTION:READ                


 OPENED ml.riv
 FILE TYPE:RIV6                   UNIT 1014   STATUS:OLD                 
 FORMAT:FORMATTED              ACCESS:SEQUENTIAL          
 ACTION:READ                


 DISV -- VERTEX GRID DISCRETIZATION PACKAGE, VERSION 1 : 12/23/2015 - INPUT READ FROM UNIT 1005


 # File generated by Flopy version 3.3.5 on 03/30/2022 at 15:16:23.

 PROCESSING DISCRETIZATION OPTIONS
    MODEL LENGTH UNIT IS METERS
    XORIGIN SPECIFIED AS     405575.681000000    
    YORIGIN SPECIFIED AS     6423306.54000000    
 END OF DISCRETIZATION OPTIONS

 PROCESSING DISCRETIZATION DIMENSIONS
   NLAY = 1
   NCPL = 26674
   NVERT = 27090
 END OF DISCRETIZATION DIMENSIONS

 PROCESSING GRIDDATA
 END PROCESSING GRIDDATA

 PROCESSING VERTICES
   SUCCESSFULLY READ 27090 (X,Y) COORDINATES
   MINIMUM X COORDINATE =     405575.681000000    
   MAXIMUM X COORDINATE =     413975.681000000    
   MINIMUM Y COORDINATE =     6423306.54000000    
   MAXIMUM Y COORDINATE =     6432506.54000000    
 END PROCESSING VERTICES

 PROCESSING CELL2D
   SUCCESSFULLY READ 26674 CELL2D INFORMATION ENTRIES
   MINIMUM X CELL CENTER =     405675.681000000    
   MAXIMUM X CELL CENTER =     413875.681000000    
   MINIMUM Y CELL CENTER =     6423406.54000000    
   MAXIMUM Y CELL CENTER =     6432406.54000000    
   MAXIMUM NUMBER OF CELL2D VERTICES IS 6 FOR CELL 208
 END PROCESSING VERTICES

 NPF -- NODE PROPERTY FLOW PACKAGE, VERSION 1, 3/30/2015 INPUT READ FROM UNIT 1007


 # File generated by Flopy version 3.3.5 on 03/30/2022 at 15:16:27.
 PROCESSING NPF OPTIONS
    CELL-BY-CELL FLOW INFORMATION WILL BE SAVED TO BINARY FILE WHENEVER ICBCFL IS NOT ZERO.
    SPECIFIC DISCHARGE WILL BE CALCULATED AT CELL CENTERS AND WRITTEN TO DATA-SPDIS IN BUDGET FILE WHEN REQUESTED.
 END OF NPF OPTIONS

 WEL   -- WEL PACKAGE, VERSION 8, 2/22/2014 INPUT READ FROM UNIT 1012
 # File generated by Flopy version 3.3.5 on 03/30/2022 at 15:16:27.

 PROCESSING WEL OPTIONS
    WEL BOUNDARIES HAVE NAMES IN LAST COLUMN.
    FLOWS WILL BE SAVED TO BUDGET FILE SPECIFIED IN OUTPUT CONTROL
 END OF WEL OPTIONS

 PROCESSING WEL DIMENSIONS
    MAXBOUND =       9
 END OF WEL DIMENSIONS

 DRN   -- DRN PACKAGE, VERSION 8, 2/22/2014 INPUT READ FROM UNIT 1013
 # File generated by Flopy version 3.3.5 on 03/30/2022 at 15:16:27.

 PROCESSING DRN OPTIONS
    DRN BOUNDARIES HAVE NAMES IN LAST COLUMN.
    FLOWS WILL BE SAVED TO BUDGET FILE SPECIFIED IN OUTPUT CONTROL

 OPENED ml.drn.obs
 FILE TYPE:OBS   UNIT 1016   STATUS:OLD                 
 FORMAT:FORMATTED              ACCESS:SEQUENTIAL          
 ACTION:READ                

 END OF DRN OPTIONS

 PROCESSING DRN DIMENSIONS
    MAXBOUND =     133
 END OF DRN DIMENSIONS

 RIV   -- RIV PACKAGE, VERSION 8, 2/22/2014 INPUT READ FROM UNIT 1014
 # File generated by Flopy version 3.3.5 on 03/30/2022 at 15:16:28.

 PROCESSING RIV OPTIONS
    AUXILIARY RIV VARIABLE: FID             
    RIV BOUNDARIES HAVE NAMES IN LAST COLUMN.
    FLOWS WILL BE SAVED TO BUDGET FILE SPECIFIED IN OUTPUT CONTROL
 END OF RIV OPTIONS

 PROCESSING RIV DIMENSIONS
    MAXBOUND =     794
 END OF RIV DIMENSIONS

 GHB   -- GHB PACKAGE, VERSION 8, 2/22/2014 INPUT READ FROM UNIT 1008
 # File generated by Flopy version 3.3.5 on 03/30/2022 at 15:16:27.

 PROCESSING GHB OPTIONS
    GHB BOUNDARIES HAVE NAMES IN LAST COLUMN.
    FLOWS WILL BE SAVED TO BUDGET FILE SPECIFIED IN OUTPUT CONTROL
 END OF GHB OPTIONS

 PROCESSING GHB DIMENSIONS
    MAXBOUND =     153
 END OF GHB DIMENSIONS

 RCH   -- RCH PACKAGE, VERSION 8, 2/22/2014 INPUT READ FROM UNIT 1009
 # File generated by Flopy version 3.3.5 on 03/30/2022 at 15:16:27.

 PROCESSING RCH OPTIONS
    RECHARGE INPUT WILL BE READ AS ARRAY(S).
    FLOWS WILL BE SAVED TO BUDGET FILE SPECIFIED IN OUTPUT CONTROL
 END OF RCH OPTIONS

 IC -- INITIAL CONDITIONS PACKAGE, VERSION 8, 3/28/2015 INPUT READ FROM UNIT 1006
 # File generated by Flopy version 3.3.5 on 03/30/2022 at 15:16:27.
 PROCESSING GRIDDATA

     INITIAL HEAD =   15.00000    
 END PROCESSING GRIDDATA
 PROCESSING GRIDDATA

                ICELLTYPE = 0

 OPENED ../com_ext/k.txt
 FILE TYPE:OPEN/CLOSE   UNIT 1017   STATUS:OLD                 
 FORMAT:FORMATTED              ACCESS:SEQUENTIAL          
 ACTION:READ                

 K33 not provided.  Assuming K33 = K.
 K22 not provided.  Assuming K22 = K.
 END PROCESSING GRIDDATA

The observation utility is active for "ML"
 # File generated by Flopy version 3.3.5 on 03/30/2022 at 15:16:27.

Processing observation options:

Text output number of digits of precision set to: 10
The PRINT_INPUT option has been specified.


 OBSERVATIONS READ FROM FILE "ml.obs"
 ----------------------------------------------------------------------------------------------------------------------------------------------------------------------------------------------------------------------------
 NAME                                     TYPE                                       TIME         LOCATION DATA                              OUTPUT FILENAME                                                                 
 ----------------------------------------------------------------------------------------------------------------------------------------------------------------------------------------------------------------------------
 PRG                                      CONTINUOUS  HEAD                           ALL TIMES    "1 16523"                                  sim/hds.csv                                                                     
 P8                                       CONTINUOUS  HEAD                           ALL TIMES    "1 10323"                                  sim/hds.csv                                                                     
 P24                                      CONTINUOUS  HEAD                           ALL TIMES    "1 9594"                                   sim/hds.csv                                                                     
 P25                                      CONTINUOUS  HEAD                           ALL TIMES    "1 13966"                                  sim/hds.csv                                                                     
 P32                                      CONTINUOUS  HEAD                           ALL TIMES    "1 15787"                                  sim/hds.csv                                                                     
 P33                                      CONTINUOUS  HEAD                           ALL TIMES    "1 15825"                                  sim/hds.csv                                                                     
 PF                                       CONTINUOUS  HEAD                           ALL TIMES    "1 21048"                                  sim/hds.csv                                                                     
 PH                                       CONTINUOUS  HEAD                           ALL TIMES    "1 20781"                                  sim/hds.csv                                                                     
 PZHM1                                    CONTINUOUS  HEAD                           ALL TIMES    "1 14521"                                  sim/hds.csv                                                                     
 P26                                      CONTINUOUS  HEAD                           ALL TIMES    "1 13141"                                  sim/hds.csv                                                                     
 P27                                      CONTINUOUS  HEAD                           ALL TIMES    "1 8465"                                   sim/hds.csv                                                                     
 P28                                      CONTINUOUS  HEAD                           ALL TIMES    "1 8924"                                   sim/hds.csv                                                                     
 P29                                      CONTINUOUS  HEAD                           ALL TIMES    "1 4524"                                   sim/hds.csv                                                                     
 P30                                      CONTINUOUS  HEAD                           ALL TIMES    "1 5255"                                   sim/hds.csv                                                                     
 R20                                      CONTINUOUS  HEAD                           ALL TIMES    "1 10676"                                  sim/hds.csv                                                                     
 R21                                      CONTINUOUS  HEAD                           ALL TIMES    "1 10403"                                  sim/hds.csv                                                                     
 P34                                      CONTINUOUS  HEAD                           ALL TIMES    "1 15131"                                  sim/hds.csv                                                                     
 P37                                      CONTINUOUS  HEAD                           ALL TIMES    "1 15755"                                  sim/hds.csv                                                                     
 P38                                      CONTINUOUS  HEAD                           ALL TIMES    "1 15045"                                  sim/hds.csv                                                                     
 P39                                      CONTINUOUS  HEAD                           ALL TIMES    "1 9637"                                   sim/hds.csv                                                                     
 P40                                      CONTINUOUS  HEAD                           ALL TIMES    "1 9312"                                   sim/hds.csv                                                                     
 AP1                                      CONTINUOUS  HEAD                           ALL TIMES    "1 9702"                                   sim/hds.csv                                                                     
 RCK1                                     CONTINUOUS  HEAD                           ALL TIMES    "1 15900"                                  sim/hds.csv                                                                     
 RCK2                                     CONTINUOUS  HEAD                           ALL TIMES    "1 15199"                                  sim/hds.csv                                                                     
 P23                                      CONTINUOUS  HEAD                           ALL TIMES    "1 6409"                                   sim/hds.csv                                                                     
 ----------------------------------------------------------------------------------------------------------------------------------------------------------------------------------------------------------------------------


    BINARY GRID INFORMATION WILL BE WRITTEN TO:
      UNIT NUMBER: 1019
      FILE NAME: ./ml.disv.grb

 OPENED ./ml.disv.grb
 FILE TYPE:DATA(BINARY)   UNIT 1019   STATUS:REPLACE             
 FORMAT:UNFORMATTED            ACCESS:STREAM              
 ACTION:READWRITE           

      THE LAST TIME STEP WILL BE PRINTED
      THE LAST TIME STEP WILL BE PRINTED
 # File generated by Flopy version 3.3.5 on 03/30/2022 at 15:16:27.

 PROCESSING OC OPTIONS

    BUDGET INFORMATION WILL BE WRITTEN TO:
      UNIT NUMBER: 1020
      FILE NAME: ml.cbc

 OPENED ml.cbc
 FILE TYPE:DATA(BINARY)   UNIT 1020   STATUS:REPLACE             
 FORMAT:UNFORMATTED            ACCESS:STREAM              
 ACTION:READWRITE           

    HEAD INFORMATION WILL BE WRITTEN TO:
      UNIT NUMBER: 1021
      FILE NAME: ml.hds

 OPENED ml.hds
 FILE TYPE:DATA(BINARY)   UNIT 1021   STATUS:REPLACE             
 FORMAT:UNFORMATTED            ACCESS:STREAM              
 ACTION:READWRITE           

 END OF OC OPTIONS

The observation utility is active for "DRN_0"
 # File generated by Flopy version 3.3.5 on 03/30/2022 at 15:16:27.

Processing observation options:



start timestep kper="1" kstp="1" mode="normal"


 BEGIN READING OUTPUT CONTROL FOR STRESS PERIOD 1
      THE LAST TIME STEP WILL BE SAVED
      THE LAST TIME STEP WILL BE SAVED

 END READING OUTPUT CONTROL FOR STRESS PERIOD 1

 OPENED ext/well_spd_1.txt
 FILE TYPE:OPEN/CLOSE   UNIT 1023   STATUS:OLD                 
 FORMAT:FORMATTED              ACCESS:SEQUENTIAL          
 ACTION:READ                


 OPENED ext/drn_spd_1.txt
 FILE TYPE:OPEN/CLOSE   UNIT 1024   STATUS:OLD                 
 FORMAT:FORMATTED              ACCESS:SEQUENTIAL          
 ACTION:READ                


 OPENED ext/riv_spd_1.txt
 FILE TYPE:OPEN/CLOSE   UNIT 1025   STATUS:OLD                 
 FORMAT:FORMATTED              ACCESS:SEQUENTIAL          
 ACTION:READ                


 OPENED ../com_ext/ghb_spd_1.txt
 FILE TYPE:OPEN/CLOSE   UNIT 1026   STATUS:OLD                 
 FORMAT:FORMATTED              ACCESS:SEQUENTIAL          
 ACTION:READ                


 OPENED ../com_ext/rech_spd_1.txt
 FILE TYPE:OPEN/CLOSE   UNIT 1027   STATUS:OLD                 
 FORMAT:FORMATTED              ACCESS:SEQUENTIAL          
 ACTION:READ                


 SLN_1 INNER ITERATION SUMMARY
 --------------------------------------------------------------------------------------------------------------------------------------
      TOTAL      OUTER      INNER                                                            MAXIMUM                                   
  ITERATION  ITERATION  ITERATION  MAXIMUM CHANGE      MAXIMUM CHANGE MODEL-(CELLID)        RESIDUAL    MAXIMUM RESIDUAL MODEL-(CELLID)
 --------------------------------------------------------------------------------------------------------------------------------------
          1          1          1      -11.514316                    1_GWF-(1,12785)      0.32502722                      1_GWF-(1,612)
          2          1          2      -6.0011591                    1_GWF-(1,12779)     -0.11396369                    1_GWF-(1,12782)
          3          1          3       4.2162869                    1_GWF-(1,26559)  7.23166985E-02                    1_GWF-(1,12755)
          4          1          4       3.3137219                    1_GWF-(1,26512)  8.97378047E-02                      1_GWF-(1,267)
          5          1          5       2.5907948                    1_GWF-(1,26519) -6.24625331E-02                     1_GWF-(1,7788)
          6          1          6       2.6946607                    1_GWF-(1,26649)  3.96446173E-02                    1_GWF-(1,12755)
          7          1          7       2.7602780                    1_GWF-(1,26663)  3.87068707E-02                    1_GWF-(1,26663)
          8          1          8       2.9763311                    1_GWF-(1,26665)  4.14875395E-02                    1_GWF-(1,26665)
          9          1          9       2.2098638                    1_GWF-(1,26666) -3.82512158E-02                    1_GWF-(1,26665)
         10          1         10       2.0707598                    1_GWF-(1,26665)  3.50574217E-02                    1_GWF-(1,12772)
         11          1         11       1.4298998                    1_GWF-(1,26544)  2.36026397E-02                    1_GWF-(1,26622)
         12          1         12      -1.2866902                    1_GWF-(1,26622)  2.84715327E-02                    1_GWF-(1,26649)
         13          1         13      -1.5437039                    1_GWF-(1,26649)  2.82232389E-02                    1_GWF-(1,26622)
         14          1         14      -1.1056001                    1_GWF-(1,26622) -2.04407962E-02                    1_GWF-(1,26622)
         15          1         15     -0.80454200                    1_GWF-(1,26623) -1.94941130E-02                    1_GWF-(1,12772)
         16          1         16     -0.60374600                    1_GWF-(1,26586)  1.78283954E-02                    1_GWF-(1,17772)
         17          1         17      0.57311075                    1_GWF-(1,26589) -1.40246498E-02                    1_GWF-(1,26588)
         18          1         18      0.83292999                    1_GWF-(1,26588)  2.03112361E-02                    1_GWF-(1,26588)
         19          1         19     -0.85449072                    1_GWF-(1,26588) -1.57685569E-02                    1_GWF-(1,26588)
         20          1         20     -0.62721178                    1_GWF-(1,26543) -1.15570072E-02                    1_GWF-(1,26543)
         21          1         21     -0.51595656                    1_GWF-(1,26544) -9.66490729E-03                    1_GWF-(1,17772)
         22          1         22     -0.57496587                    1_GWF-(1,26486)  8.53128555E-03                    1_GWF-(1,26487)
         23          1         23     -0.59729640                    1_GWF-(1,26487)  9.02501100E-03                    1_GWF-(1,26486)
         24          1         24     -0.51088760                    1_GWF-(1,26486) -8.66833249E-03                    1_GWF-(1,26420)
         25          1         25     -0.38740242                    1_GWF-(1,26487) -7.56075481E-03                    1_GWF-(1,26487)
         26          1         26      0.30303343                    1_GWF-(1,26487)  4.51212378E-03                    1_GWF-(1,26487)
         27          1         27      0.25084969                    1_GWF-(1,26420) -6.96719328E-03                     1_GWF-(1,7772)
         28          1         28      0.22226995                    1_GWF-(1,26422)  4.90137194E-03                     1_GWF-(1,7773)
         29          1         29     -0.21100517                    1_GWF-(1,26648) -3.38425409E-03                    1_GWF-(1,12755)
         30          1         30      0.19340852                    1_GWF-(1,26422) -5.88110745E-03                     1_GWF-(1,7773)
         31          1         31      0.20856412                    1_GWF-(1,26350)  6.21981103E-03                     1_GWF-(1,7773)
         32          1         32     -0.21953618                    1_GWF-(1,26350)  3.49081396E-03                    1_GWF-(1,26422)
         33          1         33     -0.26621529                    1_GWF-(1,26422) -6.27475145E-03                     1_GWF-(1,7773)
         34          1         34     -0.23109340                    1_GWF-(1,26350)  6.03125984E-03                     1_GWF-(1,7773)
         35          1         35     -0.17321498                    1_GWF-(1,26422) -2.82186401E-03                     1_GWF-(1,7784)
         36          1         36     -0.14211388                    1_GWF-(1,25391) -3.78226510E-03                     1_GWF-(1,7773)
         37          1         37     -0.12690275                     1_GWF-(1,1985)  4.29360363E-03                     1_GWF-(1,7773)
         38          1         38     -0.11330449                     1_GWF-(1,1823)  2.26163635E-03                    1_GWF-(1,12778)
         39          1         39     -0.10755028                     1_GWF-(1,1813)  3.11015682E-03                     1_GWF-(1,7784)
         40          1         40     -0.10826604                     1_GWF-(1,1797) -3.02807585E-03                    1_GWF-(1,12772)
         41          1         41     -0.11439151                     1_GWF-(1,1131) -2.08064208E-03                    1_GWF-(1,17775)
         42          1         42     -0.11338186                     1_GWF-(1,1121)  1.70195335E-03                     1_GWF-(1,7784)
         43          1         43     -0.10060725                     1_GWF-(1,1304) -2.60542944E-03                    1_GWF-(1,12772)
         44          1         44 -9.70610956E-02                     1_GWF-(1,1289) -2.04074788E-03                    1_GWF-(1,17775)
         45          1         45     -0.10321406                     1_GWF-(1,1247)  1.87399182E-03                    1_GWF-(1,12756)
         46          1         46 -9.63652578E-02                     1_GWF-(1,1201) -1.62304227E-03                    1_GWF-(1,12772)
         47          1         47 -8.63817872E-02                     1_GWF-(1,1031)  1.61693649E-03                    1_GWF-(1,12772)
         48          1         48 -8.61059226E-02                    1_GWF-(1,26218) -1.53690831E-03                    1_GWF-(1,26218)
         49          1         49 -8.61571789E-02                    1_GWF-(1,26217)  1.63648068E-03                    1_GWF-(1,26218)
         50          1         50 -9.03459760E-02                    1_GWF-(1,26218) -1.53967291E-03                    1_GWF-(1,26218)
         51          2          1      -8.1080695                    1_GWF-(1,26458)     -0.18765854                    1_GWF-(1,26458)
         52          2          2      -4.0452201                    1_GWF-(1,26513)  3.93840077E-02                    1_GWF-(1,26458)
         53          2          3      -1.4185482                    1_GWF-(1,26395)  2.40993300E-02                    1_GWF-(1,26459)
         54          2          4      -1.6493081                    1_GWF-(1,26665)  1.76467361E-02                    1_GWF-(1,26566)
         55          2          5      -1.1244314                    1_GWF-(1,26648)  1.43491299E-02                    1_GWF-(1,26513)
         56          2          6      -1.0831283                    1_GWF-(1,26622)  8.59637282E-03                    1_GWF-(1,26637)
         57          2          7     -0.80046263                    1_GWF-(1,26588) -9.01745544E-03                    1_GWF-(1,26512)
         58          2          8     -0.72131147                    1_GWF-(1,26544)  7.37343939E-03                    1_GWF-(1,26512)
         59          2          9     -0.56749596                    1_GWF-(1,26487)  4.77569348E-03                    1_GWF-(1,26665)
         60          2         10     -0.45788840                    1_GWF-(1,26350) -6.43529493E-03                    1_GWF-(1,26665)
         61          2         11     -0.38940929                    1_GWF-(1,26422)  4.75007244E-03                    1_GWF-(1,26665)
         62          2         12     -0.26883091                    1_GWF-(1,26218) -2.98140007E-03                    1_GWF-(1,26665)
         63          2         13     -0.18536096                    1_GWF-(1,26218)  2.35123599E-03                    1_GWF-(1,26649)
         64          2         14     -0.11877111                    1_GWF-(1,26649)  2.74939966E-03                    1_GWF-(1,26622)
         65          2         15     -0.14971643                    1_GWF-(1,26622) -4.13036045E-03                    1_GWF-(1,26622)
         66          2         16      0.16374983                    1_GWF-(1,26622)  3.99417347E-03                    1_GWF-(1,26622)
         67          2         17     -0.17437280                    1_GWF-(1,25506) -2.50824197E-03                    1_GWF-(1,26628)
         68          2         18      0.16522091                    1_GWF-(1,26217) -1.65182623E-03                    1_GWF-(1,26218)
         69          2         19      0.18040743                    1_GWF-(1,26218)  2.85329267E-03                    1_GWF-(1,26625)
         70          2         20      0.11038057                    1_GWF-(1,26217) -2.60358992E-03                    1_GWF-(1,26588)
         71          2         21      0.14376258                    1_GWF-(1,26588) -2.94872165E-03                    1_GWF-(1,26543)
         72          2         22      0.16773231                    1_GWF-(1,26543)  2.82091588E-03                    1_GWF-(1,26625)
         73          2         23      0.10457201                    1_GWF-(1,26544) -1.62666843E-03                    1_GWF-(1,26218)
         74          2         24     -0.10069680                    1_GWF-(1,26217) -2.17346270E-03                    1_GWF-(1,26625)
         75          2         25     -0.13571582                    1_GWF-(1,26486)  2.07894779E-03                    1_GWF-(1,26625)
         76          2         26     -0.13725517                    1_GWF-(1,26487) -2.22679533E-03                    1_GWF-(1,26487)
         77          2         27     -0.10556046                    1_GWF-(1,26420) -2.32079101E-03                    1_GWF-(1,26625)
         78          2         28 -7.59974830E-02                    1_GWF-(1,26543) -1.46905132E-03                    1_GWF-(1,26218)
         79          2         29  5.89768979E-02                    1_GWF-(1,26218)  1.24626932E-03                    1_GWF-(1,26218)
         80          2         30 -4.54824952E-02                    1_GWF-(1,21586) -1.59750037E-03                    1_GWF-(1,26625)
         81          2         31 -4.10171999E-02                    1_GWF-(1,21238)  1.57235992E-03                    1_GWF-(1,26625)
         82          2         32 -4.11336072E-02                    1_GWF-(1,21229) -1.07200496E-03                    1_GWF-(1,17771)
         83          2         33 -3.45003749E-02                    1_GWF-(1,21161)  8.60145726E-04                    1_GWF-(1,17771)
         84          2         34 -3.09084343E-02                    1_GWF-(1,19123)  1.20800474E-03                    1_GWF-(1,26625)
         85          2         35  3.55946990E-02                    1_GWF-(1,26486) -7.41861938E-04                    1_GWF-(1,26625)
         86          2         36  3.52348451E-02                    1_GWF-(1,26350)  6.59508004E-04                    1_GWF-(1,17771)
         87          2         37  4.20070174E-02                    1_GWF-(1,26422)  8.75821378E-04                    1_GWF-(1,26625)
         88          2         38  4.03075903E-02                    1_GWF-(1,26350) -6.47435410E-04                    1_GWF-(1,26625)
         89          2         39  3.31430888E-02                    1_GWF-(1,26422)  6.77337762E-04                    1_GWF-(1,17771)
         90          2         40 -2.32469506E-02                    1_GWF-(1,20880)  7.11392509E-04                    1_GWF-(1,26625)
         91          2         41 -2.32199852E-02                    1_GWF-(1,20790) -7.69903978E-04                    1_GWF-(1,26625)
         92          2         42 -1.71880218E-02                    1_GWF-(1,20098)  5.34067812E-04                    1_GWF-(1,17771)
         93          2         43 -1.72391026E-02                    1_GWF-(1,20070) -4.42870312E-04                    1_GWF-(1,17771)
         94          2         44 -1.66936547E-02                    1_GWF-(1,20055) -7.25750835E-04                    1_GWF-(1,26625)
         95          2         45 -1.63795286E-02                    1_GWF-(1,20043)  5.54935632E-04                    1_GWF-(1,26625)
         96          2         46 -1.53104378E-02                    1_GWF-(1,26486) -4.24357735E-04                    1_GWF-(1,17771)
         97          2         47 -1.36050416E-02                    1_GWF-(1,20012) -4.92732757E-04                    1_GWF-(1,26625)
         98          2         48 -1.20719938E-02                    1_GWF-(1,19989)  5.40828193E-04                    1_GWF-(1,26625)
         99          2         49 -1.17774161E-02                    1_GWF-(1,26648) -2.84446775E-04                    1_GWF-(1,17771)
        100          2         50 -9.64089308E-03                    1_GWF-(1,26649)  3.24333210E-04                    1_GWF-(1,17771)
        101          3          1 -1.98485993E-02                    1_GWF-(1,11378) -4.25981009E-04                    1_GWF-(1,12768)
        102          3          2 -1.53758329E-02                    1_GWF-(1,11373) -2.65117460E-04                    1_GWF-(1,11373)
        103          3          3 -8.89644155E-03                    1_GWF-(1,11375)  5.23767150E-04                    1_GWF-(1,12768)
        104          3          4  7.03572043E-03                    1_GWF-(1,20015) -4.86978428E-04                    1_GWF-(1,12768)
        105          3          5  8.38092449E-03                    1_GWF-(1,15665) -3.11070985E-04                    1_GWF-(1,11369)
        106          3          6  8.81552077E-03                    1_GWF-(1,19999)  3.19802779E-04                    1_GWF-(1,12768)
        107          3          7  9.09184662E-03                    1_GWF-(1,20045) -4.73028693E-04                    1_GWF-(1,12768)
        108          3          8  8.41745143E-03                    1_GWF-(1,15460)  3.05790414E-04                    1_GWF-(1,12768)
        109          3          9  8.20757450E-03                    1_GWF-(1,15463)  2.88228329E-04                    1_GWF-(1,12767)
        110          3         10  8.20764940E-03                    1_GWF-(1,20787) -2.57043995E-04                    1_GWF-(1,12768)
        111          3         11  8.47022401E-03                    1_GWF-(1,19200)  2.98459922E-04                    1_GWF-(1,12768)
        112          3         12 -8.55956913E-03                    1_GWF-(1,26422)  2.80865460E-04                    1_GWF-(1,12767)
        113          3         13 -9.19944682E-03                    1_GWF-(1,26350) -2.16651619E-04                    1_GWF-(1,12767)
        114          3         14 -9.52003032E-03                    1_GWF-(1,26422)  1.67964158E-04                    1_GWF-(1,26350)
        115          3         15 -9.17171956E-03                    1_GWF-(1,26350)  2.02210279E-04                    1_GWF-(1,12767)
        116          3         16 -8.59354097E-03                    1_GWF-(1,26422) -2.15164653E-04                    1_GWF-(1,12767)
        117          3         17  7.39683413E-03                    1_GWF-(1,26422) -1.74419186E-04                     1_GWF-(1,7770)
        118          3         18  5.40838896E-03                    1_GWF-(1,26350) -1.46477218E-04                    1_GWF-(1,17771)
        119          3         19  4.71146158E-03                    1_GWF-(1,21572) -1.96124943E-04                    1_GWF-(1,12767)
        120          3         20  5.07117184E-03                    1_GWF-(1,26544) -1.47469273E-04                     1_GWF-(1,7770)
        121          3         21  5.37962145E-03                    1_GWF-(1,26486)  1.39170409E-04                     1_GWF-(1,7770)
        122          3         22  4.61794879E-03                    1_GWF-(1,26588) -1.20152306E-04                    1_GWF-(1,26543)
        123          3         23  6.62240051E-03                    1_GWF-(1,26543) -1.38372355E-04                    1_GWF-(1,26588)
        124          3         24  6.82165740E-03                    1_GWF-(1,26588)  8.21213955E-05                    1_GWF-(1,26588)
        125          3         25  3.82465570E-03                    1_GWF-(1,26420) -8.86642807E-05                    1_GWF-(1,12767)
        126          3         26  2.90052916E-03                    1_GWF-(1,26487) -1.09830559E-04                     1_GWF-(1,7770)
        127          3         27 -3.56030966E-03                    1_GWF-(1,26649)  7.96644288E-05                     1_GWF-(1,7770)
        128          3         28 -3.16824921E-03                    1_GWF-(1,26588) -6.77721756E-05                    1_GWF-(1,26622)
        129          3         29 -4.60247143E-03                    1_GWF-(1,26543) -8.46351486E-05                     1_GWF-(1,7770)
        130          3         30 -4.77162092E-03                    1_GWF-(1,26588) -7.66217478E-05                    1_GWF-(1,26588)
        131          3         31 -3.35964787E-03                    1_GWF-(1,26543) -5.25689528E-05                    1_GWF-(1,26543)
        132          3         32 -3.55931249E-03                    1_GWF-(1,26218) -7.78034229E-05                     1_GWF-(1,7770)
        133          3         33 -2.77803250E-03                    1_GWF-(1,26217) -5.29597438E-05                    1_GWF-(1,26665)
        134          3         34  2.65756410E-03                    1_GWF-(1,26665)  6.44053151E-05                    1_GWF-(1,26665)
        135          3         35 -2.62007852E-03                    1_GWF-(1,26665) -6.10448137E-05                     1_GWF-(1,7770)
        136          3         36  2.40060916E-03                    1_GWF-(1,26665) -4.13286281E-05                    1_GWF-(1,26487)
        137          3         37  2.14507815E-03                    1_GWF-(1,26487) -3.51986502E-05                    1_GWF-(1,26218)
        138          3         38  2.07569097E-03                    1_GWF-(1,26218) -4.24833873E-05                     1_GWF-(1,7770)
        139          3         39  1.86475920E-03                    1_GWF-(1,26217) -3.46909563E-05                    1_GWF-(1,26623)
        140          3         40  1.83881789E-03                    1_GWF-(1,26420)  3.27002431E-05                    1_GWF-(1,26623)
        141          3         41  1.81540698E-03                    1_GWF-(1,26487) -3.58223219E-05                     1_GWF-(1,7770)
        142          3         42  1.46626922E-03                    1_GWF-(1,26486)  2.45460417E-05                    1_GWF-(1,26346)
        143          3         43 -1.23787915E-03                    1_GWF-(1,25520)  2.60420793E-05                     1_GWF-(1,7770)
        144          3         44 -1.16773212E-03                    1_GWF-(1,24365) -3.43664026E-05                     1_GWF-(1,7770)
        145          3         45 -1.08747635E-03                    1_GWF-(1,24362)  3.09151123E-05                    1_GWF-(1,12768)
        146          3         46  1.08921582E-03                    1_GWF-(1,26666)  1.36786633E-05                    1_GWF-(1,26647)
        147          3         47 -9.19131288E-04                    1_GWF-(1,26152) -2.49072217E-05                     1_GWF-(1,7770)
        148          3         48 -8.58949772E-04                    1_GWF-(1,25816)  2.18681867E-05                    1_GWF-(1,12768)
        149          3         49 -9.38677427E-04                    1_GWF-(1,26171) -2.12862993E-05                    1_GWF-(1,12768)
        150          3         50 -9.14419430E-04                    1_GWF-(1,26305)  1.66572958E-05                    1_GWF-(1,12769)
        151          4          1 -2.99113240E-03                    1_GWF-(1,11245) -3.72328917E-05                    1_GWF-(1,11245)
        152          4          2 -1.55146386E-03                    1_GWF-(1,11246) -3.18758033E-05                    1_GWF-(1,11250)
        153          4          3 -9.02738233E-04                    1_GWF-(1,11241)  1.87214469E-05                    1_GWF-(1,11245)
        154          4          4 -6.28985871E-04                    1_GWF-(1,11900)  1.42113572E-05                    1_GWF-(1,11225)
        155          4          5 -4.93099893E-04                    1_GWF-(1,11902) -1.37271951E-05                    1_GWF-(1,11246)
        156          4          6 -4.63298844E-04                    1_GWF-(1,11828)  1.51014002E-05                    1_GWF-(1,11246)
        157          4          7 -3.70252706E-04                    1_GWF-(1,23371)  1.32885975E-05                    1_GWF-(1,11241)
        158          4          8 -3.89858664E-04                    1_GWF-(1,23008) -1.48989587E-05                    1_GWF-(1,11225)
        159          4          9 -4.02871113E-04                    1_GWF-(1,23028) -1.20520769E-05                    1_GWF-(1,11906)
        160          4         10 -3.72110462E-04                    1_GWF-(1,23113) -7.65795411E-06                    1_GWF-(1,26665)
        161          4         11 -3.45829778E-04                    1_GWF-(1,18693) -7.45533968E-06                    1_GWF-(1,26623)
        162          4         12  3.25641719E-04                    1_GWF-(1,26623) -7.38677893E-06                    1_GWF-(1,11906)
        163          4         13 -2.93577952E-04                    1_GWF-(1,23409) -6.47507689E-06                    1_GWF-(1,11901)
        164          4         14 -2.95756968E-04                    1_GWF-(1,23417) -4.88338487E-06                    1_GWF-(1,26487)
        165          4         15 -2.69021083E-04                    1_GWF-(1,23428) -5.26111114E-06                    1_GWF-(1,11582)
        166          4         16 -2.62437025E-04                    1_GWF-(1,23469)  5.77581477E-06                    1_GWF-(1,26665)
        167          4         17 -2.48105068E-04                    1_GWF-(1,26665) -5.18163040E-06                    1_GWF-(1,26665)
        168          4         18  2.30840703E-04                    1_GWF-(1,26665)  3.45661371E-06                    1_GWF-(1,26665)
        169          4         19 -1.64389904E-04                    1_GWF-(1,23596) -4.04673012E-06                    1_GWF-(1,11581)
        170          4         20 -1.36915979E-04                    1_GWF-(1,23591)  3.22270883E-06                    1_GWF-(1,11901)
        171          4         21  1.67554094E-04                    1_GWF-(1,26588)  3.93568059E-06                    1_GWF-(1,26588)
        172          4         22 -1.63417676E-04                    1_GWF-(1,26588)  3.73603580E-06                    1_GWF-(1,26543)
        173          4         23 -1.54634353E-04                    1_GWF-(1,26543)  2.76938402E-06                    1_GWF-(1,26588)
        174          4         24 -1.23354636E-04                    1_GWF-(1,24147)  2.84508401E-06                    1_GWF-(1,11902)
        175          4         25 -1.23304375E-04                    1_GWF-(1,24146)  2.71969538E-06                    1_GWF-(1,11817)
        176          4         26 -1.28815780E-04                    1_GWF-(1,24103)  2.41225483E-06                    1_GWF-(1,26218)
        177          4         27 -1.28579668E-04                    1_GWF-(1,24099) -2.24049965E-06                    1_GWF-(1,26588)
        178          4         28 -1.05699388E-04                    1_GWF-(1,26543) -2.79670707E-06                    1_GWF-(1,26543)
        179          4         29  1.15705110E-04                    1_GWF-(1,26543) -2.23013073E-06                    1_GWF-(1,26588)
        180          4         30  9.37266941E-05                    1_GWF-(1,26588) -1.33299822E-06                    1_GWF-(1,11545)
        181          4         31 -6.70453305E-05                    1_GWF-(1,20415)  1.57663825E-06                    1_GWF-(1,11545)
        182          4         32 -5.65055516E-05                    1_GWF-(1,20435)  1.37832317E-06                    1_GWF-(1,11566)
        183          4         33 -5.38768359E-05                    1_GWF-(1,20432) -1.02733453E-06                    1_GWF-(1,11826)
        184          4         34 -4.88472454E-05                    1_GWF-(1,20349) -1.07265791E-06                    1_GWF-(1,11821)
        185          4         35 -4.79849975E-05                    1_GWF-(1,20246) -9.10648169E-07                    1_GWF-(1,11822)
        186          4         36 -5.26920696E-05                    1_GWF-(1,26422) -9.65797052E-07                    1_GWF-(1,11566)
        187          4         37  5.94361424E-05                    1_GWF-(1,26422) -1.05771397E-06                    1_GWF-(1,26350)
        188          4         38  6.42973275E-05                    1_GWF-(1,26350)  9.76055884E-07                    1_GWF-(1,26350)
        189          4         39  5.86794886E-05                    1_GWF-(1,26422)  8.30631313E-07                    1_GWF-(1,26422)
        190          4         40 -4.27822341E-05                    1_GWF-(1,26422)  6.29965106E-07                    1_GWF-(1,11801)
        191          4         41 -3.27889697E-05                    1_GWF-(1,20104)  5.83822328E-07                    1_GWF-(1,11565)
        192          4         42 -2.83662044E-05                    1_GWF-(1,20192)  5.52667446E-07                    1_GWF-(1,11570)
        193          4         43 -2.13975414E-05                    1_GWF-(1,20200)  4.50476174E-07                    1_GWF-(1,11561)
        194          4         44 -1.97937229E-05                    1_GWF-(1,20051) -4.47788288E-07                    1_GWF-(1,11561)
        195          4         45 -1.77405169E-05                    1_GWF-(1,15674) -3.94552094E-07                    1_GWF-(1,11373)
        196          4         46 -1.88501204E-05                     1_GWF-(1,1286) -4.81461462E-07                    1_GWF-(1,11378)
        197          4         47 -1.76995742E-05                     1_GWF-(1,3761)  4.29709973E-07                    1_GWF-(1,11378)
        198          4         48 -1.67144270E-05                     1_GWF-(1,2095)  3.15982729E-07                    1_GWF-(1,11561)
        199          4         49  1.96231268E-05                    1_GWF-(1,11373) -3.69558262E-07                    1_GWF-(1,26672)
        200          4         50  1.89710290E-05                    1_GWF-(1,11378)  6.57785737E-07                    1_GWF-(1,11378)
        201          5          1 -1.78329426E-05                    1_GWF-(1,11378) -3.74746141E-07                    1_GWF-(1,26672)
        202          5          2 -1.86506573E-05                    1_GWF-(1,11373)  2.82145936E-07                    1_GWF-(1,26672)
        203          5          3 -1.32664054E-05                    1_GWF-(1,11375)  3.75617791E-07                    1_GWF-(1,12768)
        204          5          4  1.73740889E-05                    1_GWF-(1,26543) -4.69374884E-07                    1_GWF-(1,26487)
        205          5          5  2.41488604E-05                    1_GWF-(1,26487)  5.26065392E-07                    1_GWF-(1,26487)
        206          5          6  2.01355842E-05                    1_GWF-(1,26486)  4.23742284E-07                    1_GWF-(1,26486)
        207          5          7 -1.61852023E-05                    1_GWF-(1,26486) -2.52035047E-07                    1_GWF-(1,26486)
        208          5          8  1.41127686E-05                    1_GWF-(1,20056) -2.31823134E-07                    1_GWF-(1,11369)
        209          5          9  1.53553173E-05                    1_GWF-(1,20106)  2.93118350E-07                    1_GWF-(1,11570)
        210          5         10 -1.80751515E-05                    1_GWF-(1,26649) -3.73827727E-07                    1_GWF-(1,26649)
        211          5         11 -2.31722524E-05                    1_GWF-(1,26622) -5.31862875E-07                    1_GWF-(1,26622)
        212          5         12 -2.33939153E-05                    1_GWF-(1,26649) -5.59195258E-07                    1_GWF-(1,26649)
        213          5         13  2.37318036E-05                    1_GWF-(1,26649)  3.54875375E-07                    1_GWF-(1,26649)
        214          5         14  1.37167095E-05                    1_GWF-(1,20253)  1.86462418E-07                    1_GWF-(1,11353)
        215          5         15  1.34126653E-05                    1_GWF-(1,20248)  2.04467660E-07                    1_GWF-(1,11822)
        216          5         16  1.22414923E-05                    1_GWF-(1,19562) -2.40000823E-07                    1_GWF-(1,26588)
        217          5         17  1.59438515E-05                    1_GWF-(1,26588)  3.73048841E-07                    1_GWF-(1,26588)
        218          5         18 -1.83732198E-05                    1_GWF-(1,26588) -3.67466252E-07                    1_GWF-(1,26588)
        219          5         19  1.35345694E-05                    1_GWF-(1,26588) -2.68968121E-07                    1_GWF-(1,26543)
        220          5         20  1.16354113E-05                    1_GWF-(1,26543) -1.88643273E-07                    1_GWF-(1,26420)
        221          5         21 -1.06328427E-05                     1_GWF-(1,5166)  1.78795912E-07                    1_GWF-(1,26350)
        222          5         22  1.32190325E-05                    1_GWF-(1,26422) -2.19204855E-07                    1_GWF-(1,26350)
        223          5         23  1.38958054E-05                    1_GWF-(1,26350) -2.35799530E-07                    1_GWF-(1,26422)
        224          5         24  1.48295688E-05                    1_GWF-(1,26422) -2.17709269E-07                    1_GWF-(1,26350)
        225          5         25  1.14061393E-05                    1_GWF-(1,26350)  1.64471444E-07                    1_GWF-(1,26350)
        226          5         26  7.10020688E-06                    1_GWF-(1,26486)  1.48190198E-07                    1_GWF-(1,11545)
        227          5         27  6.44576867E-06                    1_GWF-(1,26663)  1.17098702E-07                    1_GWF-(1,26663)
        228          5         28 -5.73689187E-06                    1_GWF-(1,26666) -1.02748021E-07                    1_GWF-(1,26623)
        229          5         29 -6.75932954E-06                    1_GWF-(1,26665) -1.41641343E-07                    1_GWF-(1,26665)
        230          5         30  6.62603826E-06                    1_GWF-(1,26665)  1.32795488E-07                    1_GWF-(1,26665)
        231          5         31 -5.77912443E-06                    1_GWF-(1,26665)  9.97041778E-08                    1_GWF-(1,26647)
        232          5         32 -4.71145441E-06                    1_GWF-(1,26666)  8.23827361E-08                    1_GWF-(1,26665)
        233          5         33 -4.60863686E-06                    1_GWF-(1,26665) -6.70652451E-08                    1_GWF-(1,26665)
        234          5         34 -3.71870170E-06                    1_GWF-(1,19929) -7.97471678E-08                    1_GWF-(1,11902)
        235          5         35 -3.72695703E-06                    1_GWF-(1,19967)  7.74197978E-08                    1_GWF-(1,26218)
        236          5         36 -3.24335106E-06                    1_GWF-(1,20326) -7.32242493E-08                    1_GWF-(1,26218)
        237          5         37 -3.23734607E-06                    1_GWF-(1,26217)  7.32933632E-08                    1_GWF-(1,26218)
        238          5         38  2.78200002E-06                    1_GWF-(1,26217) -7.73024437E-08                    1_GWF-(1,26218)
        239          5         39  2.95996705E-06                    1_GWF-(1,26218)  6.83341943E-08                    1_GWF-(1,26218)
        240          5         40  2.27315343E-06                    1_GWF-(1,26420) -6.17501925E-08                    1_GWF-(1,26487)
        241          5         41  3.33973327E-06                    1_GWF-(1,26487) -7.29375208E-08                    1_GWF-(1,26486)
        242          5         42  3.75715128E-06                    1_GWF-(1,26486)  6.40947454E-08                    1_GWF-(1,26486)
        243          5         43  2.59640578E-06                    1_GWF-(1,26487)  4.25019609E-08                    1_GWF-(1,11582)
        244          5         44  1.82894531E-06                    1_GWF-(1,26486)  4.81062624E-08                    1_GWF-(1,11241)
        245          5         45  1.55153045E-06                    1_GWF-(1,26217) -5.07045655E-08                    1_GWF-(1,11241)
        246          5         46  1.40555182E-06                    1_GWF-(1,26648) -4.30119171E-08                    1_GWF-(1,11250)
        247          5         47  1.63675404E-06                    1_GWF-(1,26649)  3.99736402E-08                    1_GWF-(1,11246)
        248          5         48 -2.07619214E-06                    1_GWF-(1,26649)  4.30359162E-08                    1_GWF-(1,26622)
        249          5         49 -2.29192616E-06                    1_GWF-(1,26622) -4.74501224E-08                    1_GWF-(1,26622)
        250          5         50 -1.78633262E-06                    1_GWF-(1,26649) -3.79426387E-08                    1_GWF-(1,11245)
        251          6          1 -1.45419072E-06                    1_GWF-(1,26622)  4.02302523E-08                    1_GWF-(1,11245)
        252          6          2 -1.96719021E-06                    1_GWF-(1,11245)  3.00400026E-08                    1_GWF-(1,26622)
        253          6          3 -1.52541765E-06                    1_GWF-(1,11245) -5.85595450E-08                    1_GWF-(1,11245)
        254          6          4 -1.36226295E-06                    1_GWF-(1,26649)  1.96357711E-08                    1_GWF-(1,11245)
        255          6          5 -9.28455763E-07                    1_GWF-(1,26648)  2.47565514E-08                    1_GWF-(1,11245)
        256          7          1  7.27888526E-07                    1_GWF-(1,26218) -1.70195113E-08                    1_GWF-(1,26649)
 --------------------------------------------------------------------------------------------------------------------------------------


 UBDSV1 SAVING     FLOW-JA-FACE ON UNIT   1020 AT TIME STEP      1, STRESS PERIOD      1
 UBDSV06 SAVING       DATA-SPDIS IN MODEL ML               PACKAGE NPF             CONNECTED TO MODEL ML               PACKAGE NPF              ON UNIT   1020 AT TIME STEP      1, STRESS PERIOD      1
 UBDSV06 SAVING              WEL IN MODEL ML               PACKAGE ML              CONNECTED TO MODEL ML               PACKAGE WEL_0            ON UNIT   1020 AT TIME STEP      1, STRESS PERIOD      1
 UBDSV06 SAVING              DRN IN MODEL ML               PACKAGE ML              CONNECTED TO MODEL ML               PACKAGE DRN_0            ON UNIT   1020 AT TIME STEP      1, STRESS PERIOD      1
 UBDSV06 SAVING              RIV IN MODEL ML               PACKAGE ML              CONNECTED TO MODEL ML               PACKAGE RIV_0            ON UNIT   1020 AT TIME STEP      1, STRESS PERIOD      1
 UBDSV06 SAVING              GHB IN MODEL ML               PACKAGE ML              CONNECTED TO MODEL ML               PACKAGE GHB_0            ON UNIT   1020 AT TIME STEP      1, STRESS PERIOD      1
 UBDSV06 SAVING              RCH IN MODEL ML               PACKAGE ML              CONNECTED TO MODEL ML               PACKAGE RCHA_0           ON UNIT   1020 AT TIME STEP      1, STRESS PERIOD      1

 HEAD WILL BE SAVED ON UNIT 1021 AT END OF TIME STEP    1, STRESS PERIOD    1


  VOLUME BUDGET FOR ENTIRE MODEL AT END OF TIME STEP    1, STRESS PERIOD   1
  ---------------------------------------------------------------------------------------------------

     CUMULATIVE VOLUME      L**3       RATES FOR THIS TIME STEP      L**3/T          PACKAGE NAME    
     ------------------                 ------------------------                     ----------------

           IN:                                      IN:
           ---                                      ---
                 WEL =           0.0000                   WEL =           0.0000     WEL_0           
                 DRN =           0.0000                   DRN =           0.0000     DRN_0           
                 RIV =           2.6922                   RIV =           1.3461     RIV_0           
                 GHB =           8.9266                   GHB =           4.4633     GHB_0           
                 RCH =           0.9916                   RCH =           0.4958     RCHA_0          

            TOTAL IN =          12.6104              TOTAL IN =           6.3052

          OUT:                                     OUT:
          ----                                     ----
                 WEL =           0.4153                   WEL =           0.2076     WEL_0           
                 DRN =           0.5022                   DRN =           0.2511     DRN_0           
                 RIV =          11.6925                   RIV =           5.8462     RIV_0           
                 GHB =       4.4206E-04                   GHB =       2.2103E-04     GHB_0           
                 RCH =           0.0000                   RCH =           0.0000     RCHA_0          

           TOTAL OUT =          12.6104             TOTAL OUT =           6.3052

            IN - OUT =      -4.3307E-06              IN - OUT =      -2.1653E-06

 PERCENT DISCREPANCY =          -0.00     PERCENT DISCREPANCY =          -0.00




         TIME SUMMARY AT END OF TIME STEP    1 IN STRESS PERIOD    1
                    SECONDS     MINUTES      HOURS       DAYS        YEARS
                    -----------------------------------------------------------
   TIME STEP LENGTH  2.0000     3.33333E-02 5.55556E-04 2.31481E-05 6.33762E-08
 STRESS PERIOD TIME  2.0000     3.33333E-02 5.55556E-04 2.31481E-05 6.33762E-08
         TOTAL TIME  2.0000     3.33333E-02 5.55556E-04 2.31481E-05 6.33762E-08


end timestep

