                                   MODFLOW 6
                U.S. GEOLOGICAL SURVEY MODULAR HYDROLOGIC MODEL
                          GROUNDWATER FLOW MODEL (GWF)
                            VERSION 6.2.2 07/30/2021

   MODFLOW 6 compiled Jul 31 2021 14:22:53 with IFORT compiler (ver. 19.10.3)

This software has been approved for release by the U.S. Geological 
Survey (USGS). Although the software has been subjected to rigorous 
review, the USGS reserves the right to update the software as needed 
pursuant to further analysis and review. No warranty, expressed or 
implied, is made by the USGS or the U.S. Government as to the 
functionality of the software and related material nor shall the 
fact of release constitute any such warranty. Furthermore, the 
software is released on condition that neither the USGS nor the U.S. 
Government shall be held liable for any damages resulting from its 
authorized or unauthorized use. Also refer to the USGS Water 
Resources Software User Rights Notice for complete use, copyright, 
and distribution information.


System command used to initiate simulation:
mf6

MODFLOW was compiled using uniform precision.

Real Variables
  KIND: 8
  TINY (smallest non-zero value):    2.225074-308
  HUGE (largest value):    1.797693+308
  PRECISION: 15
  BIT SIZE: 64

Integer Variables
  KIND: 4
  HUGE (largest value): 2147483647
  BIT SIZE: 32

Long Integer Variables
  KIND: 8
  HUGE (largest value): 9223372036854775807
  BIT SIZE: 64

Logical Variables
  KIND: 4
  BIT SIZE: 32
 

 OPENED ./ml.disv
 FILE TYPE:DISV6                  UNIT 1005   STATUS:OLD                 
 FORMAT:FORMATTED              ACCESS:SEQUENTIAL          
 ACTION:READ                


 OPENED ./ml.ic
 FILE TYPE:IC6                    UNIT 1006   STATUS:OLD                 
 FORMAT:FORMATTED              ACCESS:SEQUENTIAL          
 ACTION:READ                


 OPENED ./ml.npf
 FILE TYPE:NPF6                   UNIT 1007   STATUS:OLD                 
 FORMAT:FORMATTED              ACCESS:SEQUENTIAL          
 ACTION:READ                


 OPENED ./ml.ghb
 FILE TYPE:GHB6                   UNIT 1008   STATUS:OLD                 
 FORMAT:FORMATTED              ACCESS:SEQUENTIAL          
 ACTION:READ                


 OPENED ./ml.rcha
 FILE TYPE:RCH6                   UNIT 1009   STATUS:OLD                 
 FORMAT:FORMATTED              ACCESS:SEQUENTIAL          
 ACTION:READ                


 OPENED ./ml.obs
 FILE TYPE:OBS6                   UNIT 1010   STATUS:OLD                 
 FORMAT:FORMATTED              ACCESS:SEQUENTIAL          
 ACTION:READ                


 OPENED ./ml.oc
 FILE TYPE:OC6                    UNIT 1011   STATUS:OLD                 
 FORMAT:FORMATTED              ACCESS:SEQUENTIAL          
 ACTION:READ                


 OPENED ml.wel
 FILE TYPE:WEL6                   UNIT 1012   STATUS:OLD                 
 FORMAT:FORMATTED              ACCESS:SEQUENTIAL          
 ACTION:READ                


 OPENED ml.drn
 FILE TYPE:DRN6                   UNIT 1013   STATUS:OLD                 
 FORMAT:FORMATTED              ACCESS:SEQUENTIAL          
 ACTION:READ                


 OPENED ml.riv
 FILE TYPE:RIV6                   UNIT 1014   STATUS:OLD                 
 FORMAT:FORMATTED              ACCESS:SEQUENTIAL          
 ACTION:READ                


 DISV -- VERTEX GRID DISCRETIZATION PACKAGE, VERSION 1 : 12/23/2015 - INPUT READ FROM UNIT 1005


 # File generated by Flopy version 3.3.5 on 03/18/2022 at 15:38:48.

 PROCESSING DISCRETIZATION OPTIONS
    MODEL LENGTH UNIT IS METERS
    XORIGIN SPECIFIED AS     405575.681000000    
    YORIGIN SPECIFIED AS     6423306.54000000    
 END OF DISCRETIZATION OPTIONS

 PROCESSING DISCRETIZATION DIMENSIONS
   NLAY = 1
   NCPL = 19687
   NVERT = 20119
 END OF DISCRETIZATION DIMENSIONS

 PROCESSING GRIDDATA
 END PROCESSING GRIDDATA

 PROCESSING VERTICES
   SUCCESSFULLY READ 20119 (X,Y) COORDINATES
   MINIMUM X COORDINATE =     405575.681000000    
   MAXIMUM X COORDINATE =     413975.681000000    
   MINIMUM Y COORDINATE =     6423306.54000000    
   MAXIMUM Y COORDINATE =     6432506.54000000    
 END PROCESSING VERTICES

 PROCESSING CELL2D
   SUCCESSFULLY READ 19687 CELL2D INFORMATION ENTRIES
   MINIMUM X CELL CENTER =     405675.681000000    
   MAXIMUM X CELL CENTER =     413875.681000000    
   MINIMUM Y CELL CENTER =     6423406.54000000    
   MAXIMUM Y CELL CENTER =     6432406.54000000    
   MAXIMUM NUMBER OF CELL2D VERTICES IS 7 FOR CELL 112
 END PROCESSING VERTICES

 NPF -- NODE PROPERTY FLOW PACKAGE, VERSION 1, 3/30/2015 INPUT READ FROM UNIT 1007


 # File generated by Flopy version 3.3.5 on 03/18/2022 at 15:38:50.
 PROCESSING NPF OPTIONS
    CELL-BY-CELL FLOW INFORMATION WILL BE SAVED TO BINARY FILE WHENEVER ICBCFL IS NOT ZERO.
    SPECIFIC DISCHARGE WILL BE CALCULATED AT CELL CENTERS AND WRITTEN TO DATA-SPDIS IN BUDGET FILE WHEN REQUESTED.
 END OF NPF OPTIONS

 WEL   -- WEL PACKAGE, VERSION 8, 2/22/2014 INPUT READ FROM UNIT 1012
 # File generated by Flopy version 3.3.5 on 03/18/2022 at 15:38:50.

 PROCESSING WEL OPTIONS
    WEL BOUNDARIES HAVE NAMES IN LAST COLUMN.
    FLOWS WILL BE SAVED TO BUDGET FILE SPECIFIED IN OUTPUT CONTROL
 END OF WEL OPTIONS

 PROCESSING WEL DIMENSIONS
    MAXBOUND =       9
 END OF WEL DIMENSIONS

 DRN   -- DRN PACKAGE, VERSION 8, 2/22/2014 INPUT READ FROM UNIT 1013
 # File generated by Flopy version 3.3.5 on 03/18/2022 at 15:38:50.

 PROCESSING DRN OPTIONS
    DRN BOUNDARIES HAVE NAMES IN LAST COLUMN.
    FLOWS WILL BE SAVED TO BUDGET FILE SPECIFIED IN OUTPUT CONTROL

 OPENED ml.drn.obs
 FILE TYPE:OBS   UNIT 1016   STATUS:OLD                 
 FORMAT:FORMATTED              ACCESS:SEQUENTIAL          
 ACTION:READ                

 END OF DRN OPTIONS

 PROCESSING DRN DIMENSIONS
    MAXBOUND =     133
 END OF DRN DIMENSIONS

 RIV   -- RIV PACKAGE, VERSION 8, 2/22/2014 INPUT READ FROM UNIT 1014
 # File generated by Flopy version 3.3.5 on 03/18/2022 at 15:38:50.

 PROCESSING RIV OPTIONS
    AUXILIARY RIV VARIABLE: FID             
    RIV BOUNDARIES HAVE NAMES IN LAST COLUMN.
    FLOWS WILL BE SAVED TO BUDGET FILE SPECIFIED IN OUTPUT CONTROL
 END OF RIV OPTIONS

 PROCESSING RIV DIMENSIONS
    MAXBOUND =     716
 END OF RIV DIMENSIONS

 GHB   -- GHB PACKAGE, VERSION 8, 2/22/2014 INPUT READ FROM UNIT 1008
 # File generated by Flopy version 3.3.5 on 03/18/2022 at 15:38:50.

 PROCESSING GHB OPTIONS
    GHB BOUNDARIES HAVE NAMES IN LAST COLUMN.
    FLOWS WILL BE SAVED TO BUDGET FILE SPECIFIED IN OUTPUT CONTROL
 END OF GHB OPTIONS

 PROCESSING GHB DIMENSIONS
    MAXBOUND =     153
 END OF GHB DIMENSIONS

 RCH   -- RCH PACKAGE, VERSION 8, 2/22/2014 INPUT READ FROM UNIT 1009
 # File generated by Flopy version 3.3.5 on 03/18/2022 at 15:38:50.

 PROCESSING RCH OPTIONS
    RECHARGE INPUT WILL BE READ AS ARRAY(S).
    FLOWS WILL BE SAVED TO BUDGET FILE SPECIFIED IN OUTPUT CONTROL
 END OF RCH OPTIONS

 IC -- INITIAL CONDITIONS PACKAGE, VERSION 8, 3/28/2015 INPUT READ FROM UNIT 1006
 # File generated by Flopy version 3.3.5 on 03/18/2022 at 15:38:50.
 PROCESSING GRIDDATA

     INITIAL HEAD =   15.00000    
 END PROCESSING GRIDDATA
 PROCESSING GRIDDATA

                ICELLTYPE = 0

 OPENED ../com_ext/k.txt
 FILE TYPE:OPEN/CLOSE   UNIT 1017   STATUS:OLD                 
 FORMAT:FORMATTED              ACCESS:SEQUENTIAL          
 ACTION:READ                

 K33 not provided.  Assuming K33 = K.
 K22 not provided.  Assuming K22 = K.
 END PROCESSING GRIDDATA

The observation utility is active for "ML"
 # File generated by Flopy version 3.3.5 on 03/18/2022 at 15:38:50.

Processing observation options:

Text output number of digits of precision set to: 10
The PRINT_INPUT option has been specified.


 OBSERVATIONS READ FROM FILE "ml.obs"
 ----------------------------------------------------------------------------------------------------------------------------------------------------------------------------------------------------------------------------
 NAME                                     TYPE                                       TIME         LOCATION DATA                              OUTPUT FILENAME                                                                 
 ----------------------------------------------------------------------------------------------------------------------------------------------------------------------------------------------------------------------------
 PRG                                      CONTINUOUS  HEAD                           ALL TIMES    "1 15215"                                  sim/hds.csv                                                                     
 P8                                       CONTINUOUS  HEAD                           ALL TIMES    "1 9276"                                   sim/hds.csv                                                                     
 P24                                      CONTINUOUS  HEAD                           ALL TIMES    "1 8547"                                   sim/hds.csv                                                                     
 P25                                      CONTINUOUS  HEAD                           ALL TIMES    "1 12688"                                  sim/hds.csv                                                                     
 P32                                      CONTINUOUS  HEAD                           ALL TIMES    "1 14479"                                  sim/hds.csv                                                                     
 P33                                      CONTINUOUS  HEAD                           ALL TIMES    "1 14517"                                  sim/hds.csv                                                                     
 PF                                       CONTINUOUS  HEAD                           ALL TIMES    "1 17997"                                  sim/hds.csv                                                                     
 PH                                       CONTINUOUS  HEAD                           ALL TIMES    "1 17730"                                  sim/hds.csv                                                                     
 PZHM1                                    CONTINUOUS  HEAD                           ALL TIMES    "1 13213"                                  sim/hds.csv                                                                     
 P26                                      CONTINUOUS  HEAD                           ALL TIMES    "1 12127"                                  sim/hds.csv                                                                     
 P27                                      CONTINUOUS  HEAD                           ALL TIMES    "1 7418"                                   sim/hds.csv                                                                     
 P28                                      CONTINUOUS  HEAD                           ALL TIMES    "1 7877"                                   sim/hds.csv                                                                     
 P29                                      CONTINUOUS  HEAD                           ALL TIMES    "1 4242"                                   sim/hds.csv                                                                     
 P30                                      CONTINUOUS  HEAD                           ALL TIMES    "1 4931"                                   sim/hds.csv                                                                     
 R20                                      CONTINUOUS  HEAD                           ALL TIMES    "1 9629"                                   sim/hds.csv                                                                     
 R21                                      CONTINUOUS  HEAD                           ALL TIMES    "1 9356"                                   sim/hds.csv                                                                     
 P34                                      CONTINUOUS  HEAD                           ALL TIMES    "1 13823"                                  sim/hds.csv                                                                     
 P37                                      CONTINUOUS  HEAD                           ALL TIMES    "1 14447"                                  sim/hds.csv                                                                     
 P38                                      CONTINUOUS  HEAD                           ALL TIMES    "1 13737"                                  sim/hds.csv                                                                     
 P39                                      CONTINUOUS  HEAD                           ALL TIMES    "1 8590"                                   sim/hds.csv                                                                     
 P40                                      CONTINUOUS  HEAD                           ALL TIMES    "1 8265"                                   sim/hds.csv                                                                     
 AP1                                      CONTINUOUS  HEAD                           ALL TIMES    "1 8655"                                   sim/hds.csv                                                                     
 RCK1                                     CONTINUOUS  HEAD                           ALL TIMES    "1 14592"                                  sim/hds.csv                                                                     
 RCK2                                     CONTINUOUS  HEAD                           ALL TIMES    "1 13891"                                  sim/hds.csv                                                                     
 P23                                      CONTINUOUS  HEAD                           ALL TIMES    "1 5908"                                   sim/hds.csv                                                                     
 ----------------------------------------------------------------------------------------------------------------------------------------------------------------------------------------------------------------------------


    BINARY GRID INFORMATION WILL BE WRITTEN TO:
      UNIT NUMBER: 1019
      FILE NAME: /srv/common/ptrack/case_study/pst_master/ml_02/./ml.disv.grb

 OPENED /srv/common/ptrack/case_study/pst_master/ml_02/./ml.disv.grb
 FILE TYPE:DATA(BINARY)   UNIT 1019   STATUS:REPLACE             
 FORMAT:UNFORMATTED            ACCESS:STREAM              
 ACTION:READWRITE           

      THE LAST TIME STEP WILL BE PRINTED
      THE LAST TIME STEP WILL BE PRINTED
 # File generated by Flopy version 3.3.5 on 03/18/2022 at 15:38:50.

 PROCESSING OC OPTIONS

    BUDGET INFORMATION WILL BE WRITTEN TO:
      UNIT NUMBER: 1020
      FILE NAME: ml.cbc

 OPENED ml.cbc
 FILE TYPE:DATA(BINARY)   UNIT 1020   STATUS:REPLACE             
 FORMAT:UNFORMATTED            ACCESS:STREAM              
 ACTION:READWRITE           

    HEAD INFORMATION WILL BE WRITTEN TO:
      UNIT NUMBER: 1021
      FILE NAME: ml.hds

 OPENED ml.hds
 FILE TYPE:DATA(BINARY)   UNIT 1021   STATUS:REPLACE             
 FORMAT:UNFORMATTED            ACCESS:STREAM              
 ACTION:READWRITE           

 END OF OC OPTIONS

The observation utility is active for "DRN_0"
 # File generated by Flopy version 3.3.5 on 03/18/2022 at 15:38:50.

Processing observation options:



start timestep kper="1" kstp="1" mode="normal"


 BEGIN READING OUTPUT CONTROL FOR STRESS PERIOD 1
      THE LAST TIME STEP WILL BE SAVED
      THE LAST TIME STEP WILL BE SAVED

 END READING OUTPUT CONTROL FOR STRESS PERIOD 1

 OPENED ext/well_spd_1.txt
 FILE TYPE:OPEN/CLOSE   UNIT 1023   STATUS:OLD                 
 FORMAT:FORMATTED              ACCESS:SEQUENTIAL          
 ACTION:READ                


 OPENED ext/drn_spd_1.txt
 FILE TYPE:OPEN/CLOSE   UNIT 1024   STATUS:OLD                 
 FORMAT:FORMATTED              ACCESS:SEQUENTIAL          
 ACTION:READ                


 OPENED ext/riv_spd_1.txt
 FILE TYPE:OPEN/CLOSE   UNIT 1025   STATUS:OLD                 
 FORMAT:FORMATTED              ACCESS:SEQUENTIAL          
 ACTION:READ                


 OPENED ../com_ext/ghb_spd_1.txt
 FILE TYPE:OPEN/CLOSE   UNIT 1026   STATUS:OLD                 
 FORMAT:FORMATTED              ACCESS:SEQUENTIAL          
 ACTION:READ                


 OPENED ../com_ext/rech_spd_1.txt
 FILE TYPE:OPEN/CLOSE   UNIT 1027   STATUS:OLD                 
 FORMAT:FORMATTED              ACCESS:SEQUENTIAL          
 ACTION:READ                


 SLN_1 INNER ITERATION SUMMARY
 --------------------------------------------------------------------------------------------------------------------------------------
      TOTAL      OUTER      INNER                                                            MAXIMUM                                   
  ITERATION  ITERATION  ITERATION  MAXIMUM CHANGE      MAXIMUM CHANGE MODEL-(CELLID)        RESIDUAL    MAXIMUM RESIDUAL MODEL-(CELLID)
 --------------------------------------------------------------------------------------------------------------------------------------
          1          1          1      -10.156116                     1_GWF-(1,6706)       3.5248045                    1_GWF-(1,10444)
          2          1          2      -7.2000284                    1_GWF-(1,11876)       3.2091329                    1_GWF-(1,14508)
          3          1          3       7.2551080                    1_GWF-(1,19518)       3.5030399                    1_GWF-(1,14510)
          4          1          4       7.6182362                    1_GWF-(1,19523)       2.4779847                    1_GWF-(1,14518)
          5          1          5       7.8902324                    1_GWF-(1,19532)       1.9578264                    1_GWF-(1,14555)
          6          1          6       8.2790733                    1_GWF-(1,19662)       1.6429130                    1_GWF-(1,14730)
          7          1          7       8.8970770                    1_GWF-(1,19635)       1.4901503                    1_GWF-(1,14738)
          8          1          8       9.4609280                    1_GWF-(1,19678)       1.5927333                    1_GWF-(1,14835)
          9          1          9       8.2554901                    1_GWF-(1,19660)       1.6026414                    1_GWF-(1,14855)
         10          1         10       7.7321268                    1_GWF-(1,19678)       1.3056554                    1_GWF-(1,14856)
         11          1         11       6.6247369                    1_GWF-(1,19557)       1.3195184                    1_GWF-(1,14636)
         12          1         12       4.5648035                    1_GWF-(1,19499)       1.2363132                    1_GWF-(1,14655)
         13          1         13      -4.2341096                    1_GWF-(1,19662)       1.2051369                    1_GWF-(1,14540)
         14          1         14      -4.2911109                    1_GWF-(1,19635)       1.1762426                    1_GWF-(1,14520)
         15          1         15      -4.3367084                    1_GWF-(1,19636)       1.2208269                    1_GWF-(1,14521)
         16          1         16      -4.5511364                    1_GWF-(1,19599)       1.1051564                    1_GWF-(1,14518)
         17          1         17      -4.8802973                    1_GWF-(1,19601)       1.3467096                    1_GWF-(1,14519)
         18          1         18      -5.6600174                    1_GWF-(1,19556)      0.98084350                    1_GWF-(1,14510)
         19          1         19      -5.5460205                    1_GWF-(1,19601)      0.55065081                    1_GWF-(1,14516)
         20          1         20      -4.0297854                    1_GWF-(1,19433)      0.44612367                    1_GWF-(1,14638)
         21          1         21      -3.7926974                    1_GWF-(1,19500)     -0.52388268                    1_GWF-(1,14517)
         22          1         22      -3.7954765                    1_GWF-(1,19499)     -0.51869674                    1_GWF-(1,14508)
         23          1         23      -2.7914083                    1_GWF-(1,19500)      0.38023579                    1_GWF-(1,14829)
         24          1         24      -2.1155598                    1_GWF-(1,19499)      0.27133119                    1_GWF-(1,14733)
         25          1         25      -1.8095622                    1_GWF-(1,19500)      0.32995985                    1_GWF-(1,14515)
         26          1         26       1.2967253                    1_GWF-(1,19500)      0.26995962                    1_GWF-(1,10461)
         27          1         27       1.5637378                    1_GWF-(1,19433)      0.29488162                    1_GWF-(1,14508)
         28          1         28       1.2088098                    1_GWF-(1,19434)      0.25869847                    1_GWF-(1,14515)
         29          1         29       1.3324220                    1_GWF-(1,19433)      0.26734679                    1_GWF-(1,14514)
         30          1         30       1.3413865                    1_GWF-(1,19435)      0.27422436                    1_GWF-(1,14508)
         31          1         31      -1.0941499                     1_GWF-(1,3587)      0.16572954                    1_GWF-(1,10449)
         32          1         32     -0.92019225                     1_GWF-(1,3587)     -0.19154542                    1_GWF-(1,14509)
         33          1         33      0.72384533                    1_GWF-(1,19557)     -0.13416332                    1_GWF-(1,14504)
         34          1         34     -0.56870073                    1_GWF-(1,19363)     -0.12620901                    1_GWF-(1,14524)
         35          1         35      0.52713500                    1_GWF-(1,19679)     -0.12368494                    1_GWF-(1,14509)
         36          1         36      0.42544579                    1_GWF-(1,19678) -9.40209910E-02                    1_GWF-(1,14532)
         37          1         37      0.48991552                     1_GWF-(1,3583) -9.97054063E-02                    1_GWF-(1,14507)
         38          1         38      0.35802045                     1_GWF-(1,3714)     -0.11014316                    1_GWF-(1,14512)
         39          1         39      0.36089090                     1_GWF-(1,3812) -9.49222497E-02                    1_GWF-(1,14513)
         40          1         40      0.47541050                     1_GWF-(1,3811) -9.16556872E-02                    1_GWF-(1,14684)
         41          1         41      0.39033615                     1_GWF-(1,3675) -9.46335070E-02                    1_GWF-(1,14857)
         42          1         42     -0.38173338                    1_GWF-(1,19661)  7.40001763E-02                    1_GWF-(1,14523)
         43          1         43     -0.35151046                    1_GWF-(1,19662) -7.13861636E-02                    1_GWF-(1,14835)
         44          1         44     -0.28323429                    1_GWF-(1,19636) -5.55814962E-02                    1_GWF-(1,10463)
         45          1         45     -0.26154836                     1_GWF-(1,3651) -6.21339923E-02                    1_GWF-(1,10462)
         46          1         46     -0.30303336                     1_GWF-(1,3580) -6.61291008E-02                    1_GWF-(1,14522)
         47          1         47     -0.28776841                     1_GWF-(1,3589) -5.97639271E-02                    1_GWF-(1,10462)
         48          1         48     -0.23856932                     1_GWF-(1,3799) -6.41363232E-02                    1_GWF-(1,14519)
         49          1         49     -0.20447470                    1_GWF-(1,19284) -4.77613165E-02                    1_GWF-(1,14547)
         50          1         50     -0.21548137                    1_GWF-(1,19285) -4.68254239E-02                    1_GWF-(1,14527)
         51          2          1      -27.816273                    1_GWF-(1,19394)      -4.2053713                    1_GWF-(1,19394)
         52          2          2      -15.002141                    1_GWF-(1,19465)       1.3974403                    1_GWF-(1,19394)
         53          2          3      -6.1436191                    1_GWF-(1,19528)      0.68460661                    1_GWF-(1,19393)
         54          2          4      -4.6164094                    1_GWF-(1,19621)      0.52544761                    1_GWF-(1,19518)
         55          2          5      -4.4835355                    1_GWF-(1,19660)      0.52897209                    1_GWF-(1,19394)
         56          2          6      -4.2816405                    1_GWF-(1,19662)     -0.32104592                    1_GWF-(1,19394)
         57          2          7      -2.6496333                    1_GWF-(1,19602)     -0.18010215                    1_GWF-(1,19467)
         58          2          8      -2.6715327                    1_GWF-(1,19556)      0.19244153                    1_GWF-(1,19393)
         59          2          9      -2.2037326                    1_GWF-(1,19557)     -0.11670638                    1_GWF-(1,19394)
         60          2         10      -1.4347618                    1_GWF-(1,19500) -8.99633114E-02                    1_GWF-(1,19455)
         61          2         11      -1.3053623                    1_GWF-(1,19435)  7.70608032E-02                    1_GWF-(1,19678)
         62          2         12     -0.81656220                    1_GWF-(1,19285) -7.22734718E-02                    1_GWF-(1,19678)
         63          2         13     -0.39615324                    1_GWF-(1,19284) -4.40719867E-02                    1_GWF-(1,19660)
         64          2         14      0.28671710                    1_GWF-(1,19679) -2.76328931E-02                    1_GWF-(1,19662)
         65          2         15      0.19955861                    1_GWF-(1,19662)  2.01171995E-02                    1_GWF-(1,19662)
         66          2         16      0.18008592                    1_GWF-(1,19635)  2.71736269E-02                    1_GWF-(1,19635)
         67          2         17      0.19065441                    1_GWF-(1,19636) -3.16935277E-02                    1_GWF-(1,19635)
         68          2         18      0.20115378                    1_GWF-(1,19635) -2.67932235E-02                    1_GWF-(1,19636)
         69          2         19      0.21049153                    1_GWF-(1,19679) -2.51404415E-02                    1_GWF-(1,19516)
         70          2         20      0.17129044                    1_GWF-(1,19435) -1.93537325E-02                    1_GWF-(1,19322)
         71          2         21      0.15696832                    1_GWF-(1,19285)  1.87040989E-02                    1_GWF-(1,19601)
         72          2         22     -0.13188111                    1_GWF-(1,19601) -1.70919815E-02                    1_GWF-(1,19601)
         73          2         23 -9.32691366E-02                    1_GWF-(1,19556) -1.38754922E-02                    1_GWF-(1,19556)
         74          2         24  7.59790962E-02                    1_GWF-(1,19556)  1.00129267E-02                    1_GWF-(1,14272)
         75          2         25 -7.55439423E-02                    1_GWF-(1,19499) -1.04899347E-02                    1_GWF-(1,19499)
         76          2         26 -8.04396562E-02                    1_GWF-(1,19500) -1.18752934E-02                    1_GWF-(1,19500)
         77          2         27 -7.03551549E-02                    1_GWF-(1,19499)  1.31325055E-02                    1_GWF-(1,19500)
         78          2         28 -7.37654973E-02                    1_GWF-(1,19500)  1.10323577E-02                    1_GWF-(1,19433)
         79          2         29 -6.72623411E-02                    1_GWF-(1,19433) -8.09283618E-03                    1_GWF-(1,19433)
         80          2         30 -4.60059066E-02                    1_GWF-(1,19500)  7.60628232E-03                    1_GWF-(1,14400)
         81          2         31  3.96812943E-02                    1_GWF-(1,19285)  6.96193557E-03                    1_GWF-(1,19285)
         82          2         32  5.25182756E-02                    1_GWF-(1,17681)  7.14095531E-03                    1_GWF-(1,19518)
         83          2         33  4.39084616E-02                    1_GWF-(1,17676) -7.39125861E-03                    1_GWF-(1,19562)
         84          2         34  3.83817013E-02                    1_GWF-(1,19284)  8.44929374E-03                    1_GWF-(1,14272)
         85          2         35 -3.58860693E-02                    1_GWF-(1,19661)  6.50857382E-03                    1_GWF-(1,14272)
         86          2         36  3.31574172E-02                    1_GWF-(1,19433) -5.14653761E-03                    1_GWF-(1,19574)
         87          2         37 -3.47543568E-02                    1_GWF-(1,17652) -4.35541263E-03                    1_GWF-(1,19517)
         88          2         38 -3.41134910E-02                    1_GWF-(1,17871)  5.27858068E-03                    1_GWF-(1,19612)
         89          2         39 -3.38274094E-02                    1_GWF-(1,19433) -4.84380895E-03                    1_GWF-(1,19363)
         90          2         40 -4.01470750E-02                    1_GWF-(1,19499)  4.49473957E-03                    1_GWF-(1,19363)
         91          2         41  3.71426761E-02                    1_GWF-(1,19435)  4.06389709E-03                    1_GWF-(1,19435)
         92          2         42 -3.11972656E-02                    1_GWF-(1,19435) -3.23733834E-03                    1_GWF-(1,19458)
         93          2         43  2.46787636E-02                    1_GWF-(1,18507) -3.46495274E-03                    1_GWF-(1,19460)
         94          2         44 -2.09879055E-02                    1_GWF-(1,19636)  2.27386295E-03                    1_GWF-(1,19575)
         95          2         45  1.68686247E-02                    1_GWF-(1,18162)  2.22496277E-03                    1_GWF-(1,19563)
         96          2         46  1.31568847E-02                    1_GWF-(1,18160)  1.34146525E-03                    1_GWF-(1,19565)
         97          2         47  8.50913401E-03                    1_GWF-(1,18161) -8.22894927E-04                    1_GWF-(1,19459)
         98          2         48  7.11220606E-03                    1_GWF-(1,19285)  9.56039435E-04                    1_GWF-(1,19563)
         99          2         49  5.20733765E-03                    1_GWF-(1,19435) -8.24583679E-04                    1_GWF-(1,19393)
        100          2         50  4.05313928E-03                    1_GWF-(1,19679) -6.80709959E-04                    1_GWF-(1,19529)
        101          3          1 -7.59235122E-03                    1_GWF-(1,10126) -1.92560870E-03                    1_GWF-(1,14603)
        102          3          2 -3.93561213E-03                    1_GWF-(1,10467) -1.53842736E-03                    1_GWF-(1,14602)
        103          3          3 -2.90191398E-03                    1_GWF-(1,17647) -1.07839143E-03                    1_GWF-(1,14609)
        104          3          4 -2.69805219E-03                    1_GWF-(1,17643) -1.14166088E-03                    1_GWF-(1,14267)
        105          3          5 -2.94095487E-03                    1_GWF-(1,17608) -1.35801152E-03                    1_GWF-(1,14272)
        106          3          6  2.39691384E-03                    1_GWF-(1,19685)  1.17299588E-03                    1_GWF-(1,14266)
        107          3          7  2.07791534E-03                    1_GWF-(1,19686) -9.95850747E-04                    1_GWF-(1,14266)
        108          3          8  2.25631300E-03                    1_GWF-(1,19363) -1.00018045E-03                    1_GWF-(1,14271)
        109          3          9 -2.09879133E-03                    1_GWF-(1,17137) -1.08383266E-03                    1_GWF-(1,14268)
        110          3         10 -2.05424346E-03                    1_GWF-(1,17124)  1.01479548E-03                    1_GWF-(1,14543)
        111          3         11  1.86346412E-03                    1_GWF-(1,19435)  1.09802101E-03                    1_GWF-(1,14541)
        112          3         12  1.63625349E-03                    1_GWF-(1,19363)  8.84725587E-04                    1_GWF-(1,14540)
        113          3         13 -1.62557198E-03                    1_GWF-(1,19363)  9.10185809E-04                    1_GWF-(1,14275)
        114          3         14 -1.93375858E-03                    1_GWF-(1,19435)  1.05634091E-03                    1_GWF-(1,14274)
        115          3         15 -1.86017706E-03                    1_GWF-(1,19363)  9.70894196E-04                    1_GWF-(1,14272)
        116          3         16 -1.65717432E-03                    1_GWF-(1,19435)  9.86663296E-04                    1_GWF-(1,14543)
        117          3         17 -1.55389621E-03                    1_GWF-(1,17564) -8.61186867E-04                    1_GWF-(1,14543)
        118          3         18 -1.70511307E-03                    1_GWF-(1,17568)  8.30839667E-04                    1_GWF-(1,14518)
        119          3         19 -1.36240488E-03                    1_GWF-(1,18203) -7.52646298E-04                    1_GWF-(1,14266)
        120          3         20 -8.02514201E-04                    1_GWF-(1,19636) -8.77221715E-04                    1_GWF-(1,14543)
        121          3         21 -6.94332750E-04                    1_GWF-(1,19662) -6.66463871E-04                    1_GWF-(1,14538)
        122          3         22  9.51545033E-04                    1_GWF-(1,17636)  6.37503005E-04                    1_GWF-(1,14538)
        123          3         23  9.41074944E-04                    1_GWF-(1,17647)  4.39020341E-04                    1_GWF-(1,14539)
        124          3         24  6.71299089E-04                    1_GWF-(1,17686)  3.15988952E-04                    1_GWF-(1,14543)
        125          3         25  5.88587177E-04                    1_GWF-(1,19500)  2.34107560E-04                    1_GWF-(1,14538)
        126          3         26 -4.28190414E-04                    1_GWF-(1,19500) -2.09739509E-04                    1_GWF-(1,14536)
        127          3         27 -2.95339436E-04                    1_GWF-(1,19499) -1.86969462E-04                    1_GWF-(1,14515)
        128          3         28 -2.61831354E-04                    1_GWF-(1,19500)  2.54288238E-04                    1_GWF-(1,14538)
        129          3         29 -2.88396537E-04                    1_GWF-(1,19499)  2.47958096E-04                    1_GWF-(1,14539)
        130          3         30  3.35664909E-04                    1_GWF-(1,19662)  2.06296688E-04                    1_GWF-(1,14518)
        131          3         31 -3.15237156E-04                    1_GWF-(1,19556)  2.39818847E-04                    1_GWF-(1,14538)
        132          3         32  2.54799633E-04                    1_GWF-(1,19556)  2.64455617E-04                    1_GWF-(1,14539)
        133          3         33 -2.38401861E-04                    1_GWF-(1,17927)  2.57383380E-04                    1_GWF-(1,14518)
        134          3         34 -2.16342713E-04                    1_GWF-(1,17847) -1.49524161E-04                    1_GWF-(1,14518)
        135          3         35 -2.79485680E-04                    1_GWF-(1,19678)  1.21262848E-04                    1_GWF-(1,14539)
        136          3         36 -2.29760116E-04                    1_GWF-(1,19679)  1.88364911E-04                    1_GWF-(1,14518)
        137          3         37 -1.76882738E-04                    1_GWF-(1,17636) -1.42210558E-04                    1_GWF-(1,14518)
        138          3         38  1.96449439E-04                    1_GWF-(1,19635)  1.41992992E-04                    1_GWF-(1,14516)
        139          3         39  2.11378014E-04                    1_GWF-(1,19678)  1.32394108E-04                    1_GWF-(1,14518)
        140          3         40  2.15927522E-04                    1_GWF-(1,19679)  1.04604339E-04                    1_GWF-(1,14527)
        141          3         41  1.92559302E-04                    1_GWF-(1,19678)  1.00671720E-04                    1_GWF-(1,14516)
        142          3         42 -1.26000993E-04                    1_GWF-(1,19678)  1.17744445E-04                    1_GWF-(1,14518)
        143          3         43 -1.25100123E-04                     1_GWF-(1,3783)  1.00678348E-04                    1_GWF-(1,14527)
        144          3         44 -1.13025547E-04                     1_GWF-(1,3770) -9.03606515E-05                    1_GWF-(1,14527)
        145          3         45 -8.71485808E-05                     1_GWF-(1,3735) -8.69852195E-05                    1_GWF-(1,14522)
        146          3         46 -8.80661671E-05                    1_GWF-(1,19599)  8.54949920E-05                    1_GWF-(1,14522)
        147          3         47 -9.18055472E-05                    1_GWF-(1,19636)  6.21220311E-05                    1_GWF-(1,14523)
        148          3         48 -7.93519097E-05                    1_GWF-(1,19599)  5.56744604E-05                    1_GWF-(1,14520)
        149          3         49 -5.22350098E-05                    1_GWF-(1,19636) -4.49924637E-05                    1_GWF-(1,10466)
        150          3         50 -4.24864221E-05                    1_GWF-(1,17805) -3.87586251E-05                    1_GWF-(1,14522)
        151          4          1  2.05222413E-05                    1_GWF-(1,19285)  2.33266029E-05                    1_GWF-(1,10465)
        152          4          2  3.11248243E-05                    1_GWF-(1,19636)  1.26022579E-05                    1_GWF-(1,14508)
        153          4          3  4.22550196E-05                    1_GWF-(1,19599) -3.33042383E-05                    1_GWF-(1,14522)
        154          4          4  4.26528195E-05                    1_GWF-(1,19636)  3.90495643E-05                    1_GWF-(1,14522)
        155          4          5  3.12751513E-05                    1_GWF-(1,19662)  1.85768621E-05                    1_GWF-(1,10462)
        156          4          6  3.19236326E-05                    1_GWF-(1,19284)  1.98392739E-05                    1_GWF-(1,14518)
        157          4          7  4.11848217E-05                    1_GWF-(1,19285) -2.36208090E-05                    1_GWF-(1,14518)
        158          4          8  3.62947494E-05                    1_GWF-(1,19284)  2.64193275E-05                    1_GWF-(1,14521)
        159          4          9  3.05303500E-05                    1_GWF-(1,19285) -1.39111361E-05                    1_GWF-(1,10462)
        160          4         10 -3.73816663E-05                    1_GWF-(1,19678) -1.54123444E-05                    1_GWF-(1,14518)
        161          4         11 -3.51233901E-05                    1_GWF-(1,19679)  1.49222512E-05                    1_GWF-(1,14521)
        162          4         12 -3.02097010E-05                    1_GWF-(1,19678) -8.96089484E-06                    1_GWF-(1,14542)
        163          4         13 -1.79477008E-05                    1_GWF-(1,19635)  1.13798128E-05                    1_GWF-(1,14517)
        164          4         14  1.65882169E-05                    1_GWF-(1,19635)  9.79048196E-06                    1_GWF-(1,14521)
        165          4         15  1.76331109E-05                    1_GWF-(1,19662)  7.97109743E-06                    1_GWF-(1,14510)
        166          4         16  2.04765569E-05                    1_GWF-(1,19678)  8.92710857E-06                    1_GWF-(1,14517)
        167          4         17  1.84383134E-05                    1_GWF-(1,19679)  6.52407351E-06                    1_GWF-(1,14518)
        168          4         18  1.66196607E-05                    1_GWF-(1,19678)  9.78285342E-06                    1_GWF-(1,14510)
        169          4         19 -1.20150124E-05                    1_GWF-(1,17648)  7.30090412E-06                    1_GWF-(1,14517)
        170          4         20 -1.09398674E-05                     1_GWF-(1,3580) -5.45202594E-06                    1_GWF-(1,14515)
        171          4         21 -1.54333079E-05                    1_GWF-(1,19662)  8.06790606E-06                    1_GWF-(1,14539)
        172          4         22 -1.36523244E-05                    1_GWF-(1,19635)  5.25232288E-06                    1_GWF-(1,14515)
        173          4         23  1.06728595E-05                    1_GWF-(1,19500) -4.15167348E-06                    1_GWF-(1,14515)
        174          4         24  9.05870972E-06                    1_GWF-(1,19499)  5.97730227E-06                    1_GWF-(1,14539)
        175          4         25 -8.82533872E-06                    1_GWF-(1,17666) -4.34394920E-06                    1_GWF-(1,14539)
        176          4         26  8.09849257E-06                    1_GWF-(1,19499)  3.71619872E-06                    1_GWF-(1,14543)
        177          4         27  9.51610046E-06                    1_GWF-(1,19500)  3.96943526E-06                    1_GWF-(1,14539)
        178          4         28  9.03124782E-06                    1_GWF-(1,19601)  3.32945586E-06                    1_GWF-(1,14515)
        179          4         29 -7.40227380E-06                    1_GWF-(1,19433)  3.64995714E-06                    1_GWF-(1,14543)
        180          4         30 -4.91511310E-06                    1_GWF-(1,19434)  3.33731439E-06                    1_GWF-(1,14507)
        181          4         31  4.29749762E-06                    1_GWF-(1,17667)  2.47853924E-06                    1_GWF-(1,14536)
        182          4         32  3.99318843E-06                    1_GWF-(1,17639) -2.05623936E-06                    1_GWF-(1,14520)
        183          4         33  3.22674608E-06                    1_GWF-(1,17635) -1.67738341E-06                    1_GWF-(1,14543)
        184          4         34 -2.47275236E-06                    1_GWF-(1,19601)  1.48895836E-06                    1_GWF-(1,14510)
        185          4         35 -2.05278450E-06                    1_GWF-(1,19557)  1.40186386E-06                    1_GWF-(1,14516)
        186          4         36  2.02087937E-06                    1_GWF-(1,19363)  1.09026640E-06                    1_GWF-(1,14525)
        187          4         37  1.73020428E-06                    1_GWF-(1,19435)  1.05284978E-06                    1_GWF-(1,14510)
        188          4         38 -1.98202809E-06                    1_GWF-(1,19435)  8.13188278E-07                    1_GWF-(1,14542)
        189          4         39 -2.37285229E-06                    1_GWF-(1,19363) -6.57626100E-07                    1_GWF-(1,14516)
        190          4         40 -2.36507353E-06                    1_GWF-(1,19435) -6.98540409E-07                    1_GWF-(1,14514)
        191          4         41 -2.13496490E-06                    1_GWF-(1,19363)  8.28963171E-07                    1_GWF-(1,14542)
        192          4         42 -1.79758139E-06                    1_GWF-(1,19435)  6.36584786E-07                    1_GWF-(1,14520)
        193          4         43 -1.18058929E-06                    1_GWF-(1,19363)  6.29022237E-07                    1_GWF-(1,14531)
        194          4         44  9.38693245E-07                     1_GWF-(1,4509)  5.67892640E-07                    1_GWF-(1,14266)
        195          5          1  8.06350470E-07                    1_GWF-(1,19499)  4.22199735E-07                    1_GWF-(1,14531)
 --------------------------------------------------------------------------------------------------------------------------------------


 UBDSV1 SAVING     FLOW-JA-FACE ON UNIT   1020 AT TIME STEP      1, STRESS PERIOD      1
 UBDSV06 SAVING       DATA-SPDIS IN MODEL ML               PACKAGE NPF             CONNECTED TO MODEL ML               PACKAGE NPF              ON UNIT   1020 AT TIME STEP      1, STRESS PERIOD      1
 UBDSV06 SAVING              WEL IN MODEL ML               PACKAGE ML              CONNECTED TO MODEL ML               PACKAGE WEL_0            ON UNIT   1020 AT TIME STEP      1, STRESS PERIOD      1
 UBDSV06 SAVING              DRN IN MODEL ML               PACKAGE ML              CONNECTED TO MODEL ML               PACKAGE DRN_0            ON UNIT   1020 AT TIME STEP      1, STRESS PERIOD      1
 UBDSV06 SAVING              RIV IN MODEL ML               PACKAGE ML              CONNECTED TO MODEL ML               PACKAGE RIV_0            ON UNIT   1020 AT TIME STEP      1, STRESS PERIOD      1
 UBDSV06 SAVING              GHB IN MODEL ML               PACKAGE ML              CONNECTED TO MODEL ML               PACKAGE GHB_0            ON UNIT   1020 AT TIME STEP      1, STRESS PERIOD      1
 UBDSV06 SAVING              RCH IN MODEL ML               PACKAGE ML              CONNECTED TO MODEL ML               PACKAGE RCHA_0           ON UNIT   1020 AT TIME STEP      1, STRESS PERIOD      1

 HEAD WILL BE SAVED ON UNIT 1021 AT END OF TIME STEP    1, STRESS PERIOD    1


  VOLUME BUDGET FOR ENTIRE MODEL AT END OF TIME STEP    1, STRESS PERIOD   1
  ---------------------------------------------------------------------------------------------------

     CUMULATIVE VOLUME      L**3       RATES FOR THIS TIME STEP      L**3/T          PACKAGE NAME    
     ------------------                 ------------------------                     ----------------

           IN:                                      IN:
           ---                                      ---
                 WEL =           0.0000                   WEL =           0.0000     WEL_0           
                 DRN =           0.0000                   DRN =           0.0000     DRN_0           
                 RIV =           4.9820                   RIV =           2.4910     RIV_0           
                 GHB =          28.0142                   GHB =          14.0071     GHB_0           
                 RCH =         165.2715                   RCH =          82.6357     RCHA_0          

            TOTAL IN =         198.2677              TOTAL IN =          99.1339

          OUT:                                     OUT:
          ----                                     ----
                 WEL =           0.4153                   WEL =           0.2076     WEL_0           
                 DRN =           0.4243                   DRN =           0.2121     DRN_0           
                 RIV =         161.6049                   RIV =          80.8024     RIV_0           
                 GHB =          35.8233                   GHB =          17.9117     GHB_0           
                 RCH =           0.0000                   RCH =           0.0000     RCHA_0          

           TOTAL OUT =         198.2678             TOTAL OUT =          99.1339

            IN - OUT =      -3.2739E-05              IN - OUT =      -1.6370E-05

 PERCENT DISCREPANCY =          -0.00     PERCENT DISCREPANCY =          -0.00




         TIME SUMMARY AT END OF TIME STEP    1 IN STRESS PERIOD    1
                    SECONDS     MINUTES      HOURS       DAYS        YEARS
                    -----------------------------------------------------------
   TIME STEP LENGTH  2.0000     3.33333E-02 5.55556E-04 2.31481E-05 6.33762E-08
 STRESS PERIOD TIME  2.0000     3.33333E-02 5.55556E-04 2.31481E-05 6.33762E-08
         TOTAL TIME  2.0000     3.33333E-02 5.55556E-04 2.31481E-05 6.33762E-08


end timestep

