                                   MODFLOW 6
                U.S. GEOLOGICAL SURVEY MODULAR HYDROLOGIC MODEL
                            VERSION 6.2.2 07/30/2021

   MODFLOW 6 compiled Jul 31 2021 14:22:53 with IFORT compiler (ver. 19.10.3)

This software has been approved for release by the U.S. Geological 
Survey (USGS). Although the software has been subjected to rigorous 
review, the USGS reserves the right to update the software as needed 
pursuant to further analysis and review. No warranty, expressed or 
implied, is made by the USGS or the U.S. Government as to the 
functionality of the software and related material nor shall the 
fact of release constitute any such warranty. Furthermore, the 
software is released on condition that neither the USGS nor the U.S. 
Government shall be held liable for any damages resulting from its 
authorized or unauthorized use. Also refer to the USGS Water 
Resources Software User Rights Notice for complete use, copyright, 
and distribution information.


System command used to initiate simulation:
mf6

MODFLOW was compiled using uniform precision.

Real Variables
  KIND: 8
  TINY (smallest non-zero value):    2.225074-308
  HUGE (largest value):    1.797693+308
  PRECISION: 15
  BIT SIZE: 64

Integer Variables
  KIND: 4
  HUGE (largest value): 2147483647
  BIT SIZE: 32

Long Integer Variables
  KIND: 8
  HUGE (largest value): 9223372036854775807
  BIT SIZE: 64

Logical Variables
  KIND: 4
  BIT SIZE: 32
 

 OPENED mfsim.nam
 FILE TYPE:NAM   UNIT 1001   STATUS:OLD                 
 FORMAT:FORMATTED              ACCESS:SEQUENTIAL          
 ACTION:READ                

 # File generated by Flopy version 3.3.5 on 04/28/2022 at 15:59:40.

 READING SIMULATION OPTIONS
 END OF SIMULATION OPTIONS

 READING SIMULATION TIMING

 OPENED mfsim.tdis
 FILE TYPE:TDIS   UNIT 1002   STATUS:OLD                 
 FORMAT:FORMATTED              ACCESS:SEQUENTIAL          
 ACTION:READ                


 TDIS -- TEMPORAL DISCRETIZATION PACKAGE,
 VERSION 1 : 11/13/2014 - INPUT READ FROM UNIT 1002
 # File generated by Flopy version 3.3.5 on 04/28/2022 at 15:59:40.
 PROCESSING TDIS OPTIONS
    SIMULATION TIME UNIT IS SECONDS
 END OF TDIS OPTIONS
 PROCESSING TDIS DIMENSIONS
    1 STRESS PERIOD(S) IN SIMULATION
 END OF TDIS DIMENSIONS
 PROCESSING TDIS PERIODDATA


 STRESS PERIOD     LENGTH       TIME STEPS     MULTIPLIER FOR DELT
 ----------------------------------------------------------------------------
        1         10.00000          1                    1.000
 END OF TDIS PERIODDATA
 END OF SIMULATION TIMING

 READING SIMULATION MODELS
    GWF6 model ML will be created as model 1
 END OF SIMULATION MODELS

 READING SIMULATION EXCHANGES
 END OF SIMULATION EXCHANGES

 READING SOLUTIONGROUP

 Creating solution: SLN_1           

 OPENED mfsim.ims
 FILE TYPE:IMS   UNIT 1015   STATUS:OLD                 
 FORMAT:FORMATTED              ACCESS:SEQUENTIAL          
 ACTION:READ                

 END OF SIMULATION SOLUTIONGROUP

 IMS -- ITERATIVE MODEL SOLUTION PACKAGE, VERSION 6, 4/28/2017
         INPUT READ FROM UNIT 1015
 # File generated by Flopy version 3.3.5 on 04/28/2022 at 15:59:40.

 PROCESSING IMS OPTIONS
 END OF IMS OPTIONS

 PROCESSING IMS NONLINEAR
 END OF IMS NONLINEAR DATA
 ***UNDER-RELAXATION WILL NOT BE USED***
 
 ***IMS LINEAR SOLVER WILL BE USED***

 IMSLINEAR -- UNSTRUCTURED LINEAR SOLUTION PACKAGE, VERSION 8, 04/28/2017

 PROCESSING LINEAR DATA
 END OF LINEAR DATA
 
 OUTER ITERATION CONVERGENCE CRITERION    (DVCLOSE) =    0.100000E-04
 MAXIMUM NUMBER OF OUTER ITERATIONS        (MXITER) = 100
 SOLVER PRINTOUT INDEX                     (IPRIMS) = 2
 NONLINEAR ITERATION METHOD            (NONLINMETH) = 0
 LINEAR SOLUTION METHOD                   (LINMETH) = 1

       SOLUTION BY THE        CONJUGATE-GRADIENT       METHOD
 ------------------------------------------------------------------
 MAXIMUM OF 100 CALLS OF SOLUTION ROUTINE
 MAXIMUM OF 50 INTERNAL ITERATIONS PER CALL TO SOLUTION ROUTINE
 LINEAR ACCELERATION METHOD            = CG        
 MATRIX PRECONDITIONING TYPE           = INCOMPLETE LU       
 MATRIX SCALING APPROACH               = NO SCALING          
 MATRIX REORDERING APPROACH            = ORIGINAL ORDERING        
 NUMBER OF ORTHOGONALIZATIONS          = 0
 HEAD CHANGE CRITERION FOR CLOSURE     =    0.10000E-05
 RESIDUAL CHANGE CRITERION FOR CLOSURE =    0.10000E-04
 RESIDUAL CONVERGENCE OPTION           = 1
 RESIDUAL CONVERGENCE NORM             = INFINITY NORM S 
 RELAXATION FACTOR                     =    0.00000E+00



 
    Solving:  Stress period:     1    Time step:     1
 
1
                            STRESS PERIOD NO. 1, LENGTH =   10.00000    
                            -----------------------------------------------
                            NUMBER OF TIME STEPS = 1
                            MULTIPLIER FOR DELT =     1.000
                            INITIAL TIME STEP SIZE =   10.00000    

 SLN_1 OUTER ITERATION SUMMARY
 ----------------------------------------------------------------------------------------------------------
                                OUTER      INNER                    STEP   MAXIMUM CHANGE MODEL-(CELLID) OR
 OUTER ITERATION STEP       ITERATION  ITERATION  MAXIMUM CHANGE SUCCESS             MODEL-PACKAGE-(NUMBER)
 ----------------------------------------------------------------------------------------------------------
 Model                              1         50       25.417866                            1_GWF-(1,26519)
 Model                              2         50      -20.458478                            1_GWF-(1,26519)
 Model                              3         50      -1.7862981                            1_GWF-(1,21325)
 Model                              4         50      0.75736612                            1_GWF-(1,21575)
 Model                              5         50     -0.18494363                            1_GWF-(1,21220)
 Model                              6         50  8.66133658E-02                            1_GWF-(1,21660)
 Model                              7         50 -2.07605680E-02                            1_GWF-(1,21298)
 Model                              8         50 -1.06759586E-02                            1_GWF-(1,11455)
 Model                              9         50 -2.62351165E-03                            1_GWF-(1,21298)
 Model                             10         50  1.26764582E-03                            1_GWF-(1,21499)
 Model                             11         50 -3.25736895E-04                            1_GWF-(1,21298)
 Model                             12         50  1.59295541E-04                            1_GWF-(1,21500)
 Model                             13         50 -4.10327345E-05                            1_GWF-(1,21303)
 Model                             14         24  2.02135133E-05                            1_GWF-(1,21499)
 Model                             15          1  6.89468415E-07       *                    1_GWF-(1,26665)
 ----------------------------------------------------------------------------------------------------------


 15 CALLS TO NUMERICAL SOLUTION IN TIME STEP 1 STRESS PERIOD 1
 675 TOTAL ITERATIONS

 SLN_1 INNER ITERATION SUMMARY
 --------------------------------------------------------------------------------------------------------------------------------------
      TOTAL      OUTER      INNER                                                            MAXIMUM                                   
  ITERATION  ITERATION  ITERATION  MAXIMUM CHANGE      MAXIMUM CHANGE MODEL-(CELLID)        RESIDUAL    MAXIMUM RESIDUAL MODEL-(CELLID)
 --------------------------------------------------------------------------------------------------------------------------------------
          1          1          1      -11.761764                    1_GWF-(1,12785)      0.32866090                    1_GWF-(1,11169)
          2          1          2       5.5353241                    1_GWF-(1,26601)     -0.22655842                    1_GWF-(1,11169)
          3          1          3       5.7752419                    1_GWF-(1,26565)     -0.13981288                    1_GWF-(1,11178)
          4          1          4       5.9251151                    1_GWF-(1,26512)      0.16221650                    1_GWF-(1,11178)
          5          1          5       5.6156759                    1_GWF-(1,26611)     -0.12312528                    1_GWF-(1,11180)
          6          1          6       5.9533764                    1_GWF-(1,26649)     -0.11601225                    1_GWF-(1,11157)
          7          1          7       4.8569730                    1_GWF-(1,26622) -6.89193789E-02                    1_GWF-(1,11158)
          8          1          8       3.9241528                    1_GWF-(1,26665) -6.89225125E-02                    1_GWF-(1,11180)
          9          1          9      -3.2774217                    1_GWF-(1,26665)  5.24073091E-02                    1_GWF-(1,11051)
         10          1         10      -2.8631124                    1_GWF-(1,26666) -5.57688400E-02                    1_GWF-(1,11158)
         11          1         11       2.5886473                    1_GWF-(1,26544) -5.91306510E-02                    1_GWF-(1,11180)
         12          1         12      -2.8581917                    1_GWF-(1,26622)  3.97101956E-02                    1_GWF-(1,11058)
         13          1         13      -3.4247316                    1_GWF-(1,26649)  4.32456154E-02                    1_GWF-(1,11180)
         14          1         14      -2.6112518                    1_GWF-(1,26622) -4.08749125E-02                    1_GWF-(1,11180)
         15          1         15      -1.7481440                    1_GWF-(1,26623)  2.84986658E-02                    1_GWF-(1,11026)
         16          1         16       1.4021988                    1_GWF-(1,26623)  4.85380384E-02                    1_GWF-(1,11180)
         17          1         17       1.6452727                    1_GWF-(1,26665)  3.98560480E-02                    1_GWF-(1,11051)
         18          1         18       2.0117725                    1_GWF-(1,26588) -3.37918851E-02                    1_GWF-(1,11194)
         19          1         19      -2.1425607                    1_GWF-(1,26588)  3.95800066E-02                    1_GWF-(1,11180)
         20          1         20      -1.7551894                    1_GWF-(1,26543) -2.46328096E-02                    1_GWF-(1,11104)
         21          1         21      -1.3742483                    1_GWF-(1,26544) -2.92600339E-02                    1_GWF-(1,11194)
         22          1         22      -1.6625815                    1_GWF-(1,26486)  3.18045723E-02                    1_GWF-(1,11180)
         23          1         23      -2.0631951                    1_GWF-(1,26487) -2.56559959E-02                    1_GWF-(1,11106)
         24          1         24      -2.2425433                    1_GWF-(1,26486) -2.92144656E-02                    1_GWF-(1,11194)
         25          1         25       1.9100039                    1_GWF-(1,26420) -3.49737566E-02                    1_GWF-(1,11109)
         26          1         26       2.0833051                    1_GWF-(1,26487)  2.77170707E-02                    1_GWF-(1,11151)
         27          1         27       1.8008773                    1_GWF-(1,26420) -2.73926139E-02                    1_GWF-(1,11101)
         28          1         28       1.2090851                    1_GWF-(1,26487) -3.10383160E-02                    1_GWF-(1,11109)
         29          1         29      0.87772406                    1_GWF-(1,26420)  3.27242304E-02                    1_GWF-(1,11109)
         30          1         30     -0.86560727                    1_GWF-(1,26420)  3.38716862E-02                    1_GWF-(1,11110)
         31          1         31      -1.1689591                    1_GWF-(1,26422)  2.73825222E-02                    1_GWF-(1,11105)
         32          1         32      -1.2817461                    1_GWF-(1,26350)  2.38482978E-02                     1_GWF-(1,5617)
         33          1         33      -1.3948908                    1_GWF-(1,26422)  2.84676032E-02                    1_GWF-(1,11110)
         34          1         34      -1.1861064                    1_GWF-(1,26350)  2.72966370E-02                    1_GWF-(1,11105)
         35          1         35     -0.93813481                    1_GWF-(1,26422) -3.46341222E-02                    1_GWF-(1,11105)
         36          1         36      0.85210947                    1_GWF-(1,20921) -3.88199894E-02                    1_GWF-(1,11114)
         37          1         37     -0.96437320                    1_GWF-(1,25240)  2.70401473E-02                    1_GWF-(1,11114)
         38          1         38      -1.0548073                    1_GWF-(1,25322)  3.15739746E-02                    1_GWF-(1,11103)
         39          1         39      -1.1493415                    1_GWF-(1,25455) -3.54413220E-02                    1_GWF-(1,11096)
         40          1         40      -1.1166806                    1_GWF-(1,20223)  3.67297837E-02                    1_GWF-(1,15107)
         41          1         41      -1.1896281                    1_GWF-(1,21381)  3.79892028E-02                    1_GWF-(1,11093)
         42          1         42      -1.4243882                    1_GWF-(1,21458) -4.16013195E-02                    1_GWF-(1,11093)
         43          1         43      -1.7552845                    1_GWF-(1,21487) -4.69788091E-02                    1_GWF-(1,11094)
         44          1         44      -1.9000442                    1_GWF-(1,21417)  4.77607785E-02                    1_GWF-(1,15107)
         45          1         45      -1.5579095                    1_GWF-(1,21435)  3.47269154E-02                    1_GWF-(1,11091)
         46          1         46      -1.2842486                    1_GWF-(1,20575)  3.07549772E-02                    1_GWF-(1,11093)
         47          1         47      -1.2366586                    1_GWF-(1,20920)  2.84083956E-02                    1_GWF-(1,11094)
         48          1         48      -1.1908210                    1_GWF-(1,26218) -2.53832473E-02                    1_GWF-(1,11094)
         49          1         49      -1.1876799                    1_GWF-(1,26217) -2.38147424E-02                    1_GWF-(1,11091)
         50          1         50      -1.3740728                    1_GWF-(1,26218)  2.01320717E-02                    1_GWF-(1,14801)
         51          2          1      -20.967776                    1_GWF-(1,26519) -8.84178626E-02                    1_GWF-(1,26519)
         52          2          2      -8.1066616                    1_GWF-(1,26569) -3.51556564E-02                    1_GWF-(1,26516)
         53          2          3      -4.1573752                    1_GWF-(1,26637)  2.18695323E-02                    1_GWF-(1,26516)
         54          2          4      -4.0960871                    1_GWF-(1,26665) -1.53685107E-02                    1_GWF-(1,26519)
         55          2          5      -2.7247513                    1_GWF-(1,26648)  1.25454516E-02                    1_GWF-(1,14799)
         56          2          6      -2.0365192                    1_GWF-(1,26586)  1.29456975E-02                    1_GWF-(1,14801)
         57          2          7      -1.8222234                    1_GWF-(1,26543)  1.14953425E-02                    1_GWF-(1,14799)
         58          2          8      -1.6873972                    1_GWF-(1,26486)  1.21207616E-02                    1_GWF-(1,14801)
         59          2          9      -1.4269822                    1_GWF-(1,26487)  1.05565107E-02                    1_GWF-(1,14799)
         60          2         10      -1.3811014                    1_GWF-(1,26218)  1.03172511E-02                    1_GWF-(1,14801)
         61          2         11      -1.3795910                    1_GWF-(1,26422)  9.34077220E-03                    1_GWF-(1,14801)
         62          2         12      -1.1244282                    1_GWF-(1,26217)  8.36011834E-03                    1_GWF-(1,14799)
         63          2         13      -1.0321398                    1_GWF-(1,26218)  8.70020782E-03                    1_GWF-(1,14801)
         64          2         14     -0.66956486                    1_GWF-(1,26649)  7.90454260E-03                    1_GWF-(1,14801)
         65          2         15     -0.62167701                    1_GWF-(1,26622)  7.75876857E-03                    1_GWF-(1,14801)
         66          2         16      0.93637831                    1_GWF-(1,26622)  8.25562793E-03                    1_GWF-(1,14801)
         67          2         17       1.2427235                    1_GWF-(1,26350)  7.66946648E-03                    1_GWF-(1,14799)
         68          2         18      0.96811168                    1_GWF-(1,26217)  8.09085106E-03                    1_GWF-(1,14801)
         69          2         19      0.71047904                    1_GWF-(1,26218)  8.11318775E-03                    1_GWF-(1,14801)
         70          2         20      0.51674297                    1_GWF-(1,26486)  7.73191457E-03                    1_GWF-(1,14801)
         71          2         21      0.83635590                    1_GWF-(1,26588)  8.22864800E-03                    1_GWF-(1,14801)
         72          2         22      0.93574146                    1_GWF-(1,26543)  7.82175239E-03                    1_GWF-(1,14801)
         73          2         23      0.60606624                    1_GWF-(1,25712)  8.13887909E-03                    1_GWF-(1,14801)
         74          2         24     -0.63145907                    1_GWF-(1,26422)  9.24457554E-03                    1_GWF-(1,14801)
         75          2         25     -0.86134653                    1_GWF-(1,26486)  9.26074808E-03                    1_GWF-(1,14799)
         76          2         26     -0.93410697                    1_GWF-(1,26487)  9.93038275E-03                    1_GWF-(1,14801)
         77          2         27     -0.59732912                    1_GWF-(1,26420)  1.01291125E-02                    1_GWF-(1,14801)
         78          2         28      0.32976282                    1_GWF-(1,25453)  9.85355096E-03                    1_GWF-(1,14799)
         79          2         29      0.38487376                    1_GWF-(1,26487)  1.06980366E-02                    1_GWF-(1,14801)
         80          2         30      0.40366625                    1_GWF-(1,26420)  1.02618275E-02                    1_GWF-(1,14799)
         81          2         31      0.34642620                    1_GWF-(1,25266)  1.09579789E-02                    1_GWF-(1,14801)
         82          2         32     -0.33097101                    1_GWF-(1,26157)  1.06098338E-02                    1_GWF-(1,14799)
         83          2         33     -0.30561920                    1_GWF-(1,26150)  1.03866575E-02                    1_GWF-(1,14801)
         84          2         34      0.26344580                    1_GWF-(1,26586)  9.04764838E-03                    1_GWF-(1,14799)
         85          2         35      0.33612029                    1_GWF-(1,26623)  8.34620333E-03                    1_GWF-(1,14801)
         86          2         36      0.27752125                    1_GWF-(1,26649)  6.77248384E-03                    1_GWF-(1,14799)
         87          2         37     -0.34038565                    1_GWF-(1,26350)  6.77403243E-03                    1_GWF-(1,14801)
         88          2         38     -0.32857866                    1_GWF-(1,26422)  6.54511821E-03                    1_GWF-(1,14801)
         89          2         39     -0.35899341                    1_GWF-(1,26649)  6.90796410E-03                    1_GWF-(1,14799)
         90          2         40     -0.40073527                    1_GWF-(1,26422)  7.39864481E-03                    1_GWF-(1,14801)
         91          2         41     -0.28257831                    1_GWF-(1,26420)  7.37018027E-03                    1_GWF-(1,14799)
         92          2         42      0.31665934                    1_GWF-(1,26350)  7.95892784E-03                    1_GWF-(1,14801)
         93          2         43     -0.29579271                    1_GWF-(1,26350)  7.38227807E-03                    1_GWF-(1,14799)
         94          2         44      0.35658857                    1_GWF-(1,21278)  7.52836842E-03                    1_GWF-(1,14801)
         95          2         45      0.41691010                    1_GWF-(1,21264)  6.48637420E-03                    1_GWF-(1,26625)
         96          2         46      0.43504951                    1_GWF-(1,20917)  4.39346954E-03                    1_GWF-(1,14801)
         97          2         47      0.36555628                    1_GWF-(1,20232) -3.34764063E-03                    1_GWF-(1,15940)
         98          2         48     -0.31332215                    1_GWF-(1,26665)  7.52754323E-03                    1_GWF-(1,26625)
         99          2         49     -0.32557348                    1_GWF-(1,21377) -6.43784301E-03                    1_GWF-(1,26625)
        100          2         50     -0.41391420                    1_GWF-(1,21349)  6.28497635E-03                    1_GWF-(1,15109)
        101          3          1     -0.99500651                    1_GWF-(1,16214) -4.37909451E-03                    1_GWF-(1,11460)
        102          3          2     -0.56701373                    1_GWF-(1,16200)  3.58287416E-03                    1_GWF-(1,15109)
        103          3          3     -0.37816726                    1_GWF-(1,16233)  4.90340658E-03                    1_GWF-(1,15108)
        104          3          4     -0.31844272                    1_GWF-(1,16536) -4.82283967E-03                    1_GWF-(1,15108)
        105          3          5     -0.26812052                    1_GWF-(1,21263) -3.53313752E-03                    1_GWF-(1,15109)
        106          3          6     -0.27821227                    1_GWF-(1,21260) -2.71704094E-03                    1_GWF-(1,15108)
        107          3          7      0.23967820                    1_GWF-(1,16538)  2.28875451E-03                    1_GWF-(1,15107)
        108          3          8      0.17364334                    1_GWF-(1,16545)  2.52277556E-03                    1_GWF-(1,11460)
        109          3          9     -0.18019694                    1_GWF-(1,16537)  2.37076529E-03                    1_GWF-(1,14799)
        110          3         10     -0.22050599                    1_GWF-(1,16542)  2.97162627E-03                    1_GWF-(1,14801)
        111          3         11     -0.20170691                    1_GWF-(1,16569)  3.39899020E-03                    1_GWF-(1,14799)
        112          3         12      0.18592723                    1_GWF-(1,26350)  2.94407343E-03                    1_GWF-(1,15108)
        113          3         13      0.21315247                    1_GWF-(1,26422) -2.51422479E-03                    1_GWF-(1,15108)
        114          3         14      0.23012532                    1_GWF-(1,26350)  2.10974549E-03                    1_GWF-(1,15108)
        115          3         15      0.19039032                    1_GWF-(1,26422)  1.79624241E-03                    1_GWF-(1,14801)
        116          3         16     -0.13975790                    1_GWF-(1,26422)  1.77976027E-03                    1_GWF-(1,14799)
        117          3         17     -0.10990063                    1_GWF-(1,26350)  1.92728559E-03                    1_GWF-(1,15108)
        118          3         18      0.14037812                    1_GWF-(1,11576)  2.38412264E-03                    1_GWF-(1,14936)
        119          3         19     -0.11645618                    1_GWF-(1,26586)  3.35503996E-03                    1_GWF-(1,14801)
        120          3         20     -0.12198271                    1_GWF-(1,16116)  4.33011373E-03                    1_GWF-(1,14799)
        121          3         21     -0.11970906                    1_GWF-(1,16803)  3.82485928E-03                    1_GWF-(1,14801)
        122          3         22     -0.11621717                    1_GWF-(1,11714)  3.25132580E-03                    1_GWF-(1,14799)
        123          3         23     -0.11207332                    1_GWF-(1,25444)  2.83235145E-03                    1_GWF-(1,15107)
        124          3         24     -0.10947808                    1_GWF-(1,25492)  2.32714101E-03                    1_GWF-(1,14801)
        125          3         25      0.17169613                    1_GWF-(1,26487)  1.95157627E-03                    1_GWF-(1,14801)
        126          3         26      0.20082984                    1_GWF-(1,26420)  1.57381046E-03                    1_GWF-(1,14801)
        127          3         27      0.21137470                    1_GWF-(1,26487)  2.09534529E-03                    1_GWF-(1,15109)
        128          3         28      0.14217962                    1_GWF-(1,26420)  2.90131505E-03                    1_GWF-(1,15107)
        129          3         29     -0.12300397                    1_GWF-(1,25720) -1.91744253E-03                    1_GWF-(1,15107)
        130          3         30     -0.16437143                    1_GWF-(1,26588)  1.71398721E-03                    1_GWF-(1,15107)
        131          3         31     -0.18590467                    1_GWF-(1,26543)  1.95923318E-03                    1_GWF-(1,14801)
        132          3         32     -0.15961189                    1_GWF-(1,26588)  2.07785692E-03                    1_GWF-(1,14799)
        133          3         33     -0.13354262                    1_GWF-(1,26543)  2.82807372E-03                    1_GWF-(1,15107)
        134          3         34     -0.14263452                    1_GWF-(1,26350) -3.03451909E-03                    1_GWF-(1,15107)
        135          3         35     -0.14438001                    1_GWF-(1,24856)  2.66293517E-03                    1_GWF-(1,15107)
        136          3         36      0.14343714                    1_GWF-(1,26622)  1.46776207E-03                    1_GWF-(1,10342)
        137          3         37      0.13851596                    1_GWF-(1,26623)  2.02592983E-03                    1_GWF-(1,14938)
        138          3         38      0.14690254                    1_GWF-(1,26622)  3.47050514E-03                    1_GWF-(1,15107)
        139          3         39      0.13157222                    1_GWF-(1,26649)  2.11511919E-03                    1_GWF-(1,14938)
        140          3         40     -0.13486722                    1_GWF-(1,26649)  2.07152952E-03                    1_GWF-(1,14801)
        141          3         41      0.14773613                    1_GWF-(1,26665)  2.29932887E-03                    1_GWF-(1,14801)
        142          3         42     -0.18053918                    1_GWF-(1,26665) -3.09512008E-03                    1_GWF-(1,15107)
        143          3         43     -0.12657076                    1_GWF-(1,26666)  3.31535233E-03                    1_GWF-(1,15107)
        144          3         44      0.10250689                    1_GWF-(1,26540)  2.14027120E-03                    1_GWF-(1,14938)
        145          3         45      0.11602045                    1_GWF-(1,26587)  3.13959929E-03                    1_GWF-(1,15107)
        146          3         46      0.11639354                    1_GWF-(1,26648)  1.51293502E-03                    1_GWF-(1,14938)
        147          3         47      0.12486213                    1_GWF-(1,26649)  1.81043731E-03                    1_GWF-(1,15109)
        148          3         48 -9.76048526E-02                    1_GWF-(1,26218)  2.24104557E-03                    1_GWF-(1,15108)
        149          3         49 -9.27308254E-02                    1_GWF-(1,26217)  2.55460461E-03                    1_GWF-(1,14801)
        150          3         50     -0.13333236                    1_GWF-(1,26649)  4.20218191E-03                    1_GWF-(1,15107)
        151          4          1  7.79783490E-02                    1_GWF-(1,26218)  2.90568865E-03                    1_GWF-(1,14938)
        152          4          2 -8.09200409E-02                    1_GWF-(1,26218)  3.33165360E-03                    1_GWF-(1,15107)
        153          4          3 -8.99480099E-02                    1_GWF-(1,26217) -2.39082158E-03                    1_GWF-(1,15107)
        154          4          4 -9.71688540E-02                    1_GWF-(1,26218)  2.40298122E-03                    1_GWF-(1,15107)
        155          4          5 -7.58019883E-02                    1_GWF-(1,26217)  1.37970773E-03                    1_GWF-(1,14938)
        156          4          6 -7.46609508E-02                    1_GWF-(1,26218)  9.83320732E-04                    1_GWF-(1,15107)
        157          4          7  7.41385045E-02                    1_GWF-(1,26665)  8.01507893E-04                    1_GWF-(1,10342)
        158          4          8 -6.12564876E-02                    1_GWF-(1,26218)  1.13982765E-03                    1_GWF-(1,14801)
        159          4          9  7.97764332E-02                    1_GWF-(1,26665)  1.16295773E-03                    1_GWF-(1,14801)
        160          4         10 -8.34498376E-02                    1_GWF-(1,26665)  1.15612131E-03                    1_GWF-(1,14799)
        161          4         11  7.51939447E-02                    1_GWF-(1,26665)  7.69792451E-04                    1_GWF-(1,14801)
        162          4         12 -6.76765380E-02                    1_GWF-(1,26649)  1.07277939E-03                    1_GWF-(1,15107)
        163          4         13 -6.32122463E-02                    1_GWF-(1,26622)  1.06167505E-03                    1_GWF-(1,14938)
        164          4         14  6.00351492E-02                    1_GWF-(1,26622)  1.01868709E-03                    1_GWF-(1,15107)
        165          4         15  5.67802846E-02                    1_GWF-(1,26623)  6.43332563E-04                    1_GWF-(1,10342)
        166          4         16  6.15981801E-02                    1_GWF-(1,21411)  6.07507374E-04                    1_GWF-(1,14801)
        167          4         17  5.87273957E-02                    1_GWF-(1,24833)  1.04045344E-03                    1_GWF-(1,15107)
        168          4         18  5.43706730E-02                    1_GWF-(1,24701)  1.21061964E-03                    1_GWF-(1,14799)
        169          4         19  5.33058555E-02                    1_GWF-(1,26588)  1.24908832E-03                    1_GWF-(1,14801)
        170          4         20  4.96335687E-02                    1_GWF-(1,26543)  1.04854991E-03                    1_GWF-(1,14799)
        171          4         21 -5.06522424E-02                    1_GWF-(1,26486)  7.69350377E-04                    1_GWF-(1,14801)
        172          4         22 -5.29402584E-02                    1_GWF-(1,26487)  1.19883697E-03                    1_GWF-(1,15107)
        173          4         23 -5.34608438E-02                    1_GWF-(1,26486)  1.12413172E-03                    1_GWF-(1,14938)
        174          4         24 -5.65611781E-02                    1_GWF-(1,26487)  1.17499657E-03                    1_GWF-(1,15107)
        175          4         25 -5.31723967E-02                    1_GWF-(1,26486)  5.81013843E-04                    1_GWF-(1,14799)
        176          4         26  4.51351195E-02                    1_GWF-(1,26420)  7.16964081E-04                    1_GWF-(1,14801)
        177          4         27  3.35463262E-02                    1_GWF-(1,26487)  1.51576665E-03                    1_GWF-(1,15107)
        178          4         28  2.72428280E-02                    1_GWF-(1,11744) -1.36175634E-03                    1_GWF-(1,15107)
        179          4         29  3.63251224E-02                    1_GWF-(1,26543)  2.05511574E-03                    1_GWF-(1,15107)
        180          4         30  3.81546320E-02                    1_GWF-(1,26586) -1.50842488E-03                    1_GWF-(1,15107)
        181          4         31  3.85588974E-02                    1_GWF-(1,26623)  1.83016725E-03                    1_GWF-(1,15107)
        182          4         32  3.36422971E-02                    1_GWF-(1,26586) -1.48709189E-03                    1_GWF-(1,15107)
        183          4         33  2.83163166E-02                    1_GWF-(1,26421)  1.97982245E-03                    1_GWF-(1,15107)
        184          4         34  3.51144935E-02                    1_GWF-(1,26350)  1.04644171E-03                    1_GWF-(1,14938)
        185          4         35  4.05696178E-02                    1_GWF-(1,26422)  8.30655504E-04                    1_GWF-(1,15107)
        186          4         36  3.68996863E-02                    1_GWF-(1,26350)  6.37287528E-04                    1_GWF-(1,14801)
        187          4         37 -4.03307774E-02                    1_GWF-(1,26350)  7.87775651E-04                    1_GWF-(1,14801)
        188          4         38 -4.59630440E-02                    1_GWF-(1,26422)  1.23567960E-03                    1_GWF-(1,15107)
        189          4         39 -5.03388460E-02                    1_GWF-(1,26350) -1.26077632E-03                    1_GWF-(1,15107)
        190          4         40 -5.39933540E-02                    1_GWF-(1,26422)  1.52478406E-03                    1_GWF-(1,15107)
        191          4         41 -4.21902512E-02                    1_GWF-(1,26350) -8.93524269E-04                    1_GWF-(1,15107)
        192          4         42 -3.10850640E-02                    1_GWF-(1,26422)  1.04586775E-03                    1_GWF-(1,15107)
        193          4         43 -2.13855026E-02                    1_GWF-(1,26350)  4.74357849E-04                    1_GWF-(1,15022)
        194          4         44 -2.53983023E-02                    1_GWF-(1,16538)  4.49941321E-04                    1_GWF-(1,15107)
        195          4         45 -2.75037586E-02                    1_GWF-(1,16237) -3.51157893E-04                    1_GWF-(1,15109)
        196          4         46 -2.42212336E-02                    1_GWF-(1,16230)  5.24583788E-04                    1_GWF-(1,14799)
        197          4         47  2.79555776E-02                    1_GWF-(1,16536)  6.29363507E-04                    1_GWF-(1,14798)
        198          4         48  3.46656861E-02                    1_GWF-(1,16192)  6.73697099E-04                    1_GWF-(1,14799)
        199          4         49  4.24918630E-02                    1_GWF-(1,16200)  9.96952283E-04                    1_GWF-(1,15107)
        200          4         50  3.58323453E-02                    1_GWF-(1,26623) -2.11372939E-03                    1_GWF-(1,15107)
        201          5          1 -5.24039359E-02                    1_GWF-(1,16203) -1.53973076E-03                    1_GWF-(1,11460)
        202          5          2 -2.78642027E-02                    1_GWF-(1,16229) -1.48044626E-03                    1_GWF-(1,15107)
        203          5          3 -2.72990630E-02                    1_GWF-(1,16236)  1.71199246E-03                    1_GWF-(1,11460)
        204          5          4 -2.45973915E-02                    1_GWF-(1,16583) -1.45382589E-03                    1_GWF-(1,11460)
        205          5          5 -2.31687207E-02                    1_GWF-(1,20233)  5.83256671E-04                    1_GWF-(1,15107)
        206          5          6 -1.88623212E-02                    1_GWF-(1,16623)  5.48450510E-04                    1_GWF-(1,11460)
        207          5          7 -1.42451111E-02                    1_GWF-(1,26543) -9.53975270E-04                    1_GWF-(1,11460)
        208          5          8 -1.42522319E-02                    1_GWF-(1,19052)  7.28834715E-04                    1_GWF-(1,11460)
        209          5          9  1.69356570E-02                    1_GWF-(1,20572)  4.03977366E-04                    1_GWF-(1,14938)
        210          5         10  1.72506206E-02                    1_GWF-(1,26350)  8.19868158E-04                    1_GWF-(1,15107)
        211          5         11  1.85166156E-02                    1_GWF-(1,26422)  8.47355478E-04                    1_GWF-(1,11460)
        212          5         12  1.88322892E-02                    1_GWF-(1,26350)  9.62507594E-04                    1_GWF-(1,15107)
        213          5         13  2.17669067E-02                    1_GWF-(1,26422) -6.74907009E-04                    1_GWF-(1,15107)
        214          5         14  2.07528901E-02                    1_GWF-(1,26544)  7.20225484E-04                    1_GWF-(1,11460)
        215          5         15  2.14225380E-02                    1_GWF-(1,26486) -4.11783221E-04                    1_GWF-(1,11460)
        216          5         16  1.69500815E-02                    1_GWF-(1,26649)  3.68124507E-04                    1_GWF-(1,14799)
        217          5         17  1.79017117E-02                    1_GWF-(1,26486)  6.51130805E-04                    1_GWF-(1,15107)
        218          5         18  1.30618126E-02                    1_GWF-(1,26588)  2.79474459E-04                    1_GWF-(1,14801)
        219          5         19 -1.47234014E-02                    1_GWF-(1,26588) -4.52271467E-04                    1_GWF-(1,11460)
        220          5         20  1.35373736E-02                    1_GWF-(1,26422)  5.66025062E-04                    1_GWF-(1,15107)
        221          5         21 -1.44796692E-02                    1_GWF-(1,26623)  5.79430444E-04                    1_GWF-(1,14938)
        222          5         22 -1.51088047E-02                    1_GWF-(1,25291)  9.61843128E-04                    1_GWF-(1,15107)
        223          5         23 -1.26610216E-02                    1_GWF-(1,25279) -8.36380889E-04                    1_GWF-(1,15107)
        224          5         24 -1.11595475E-02                    1_GWF-(1,25381)  9.23698695E-04                    1_GWF-(1,15107)
        225          5         25 -1.15125396E-02                    1_GWF-(1,25679) -7.44739905E-04                    1_GWF-(1,15107)
        226          5         26 -1.40315413E-02                    1_GWF-(1,26487)  4.34807402E-04                    1_GWF-(1,11460)
        227          5         27  1.65968862E-02                    1_GWF-(1,26622)  4.44444903E-04                    1_GWF-(1,15107)
        228          5         28  1.35977074E-02                    1_GWF-(1,26649)  4.79464376E-04                    1_GWF-(1,14938)
        229          5         29 -9.68002677E-03                    1_GWF-(1,24717)  6.44400132E-04                    1_GWF-(1,15107)
        230          5         30 -1.14781143E-02                    1_GWF-(1,24958) -5.52458652E-04                    1_GWF-(1,15107)
        231          5         31 -1.23984803E-02                    1_GWF-(1,24767)  6.41537473E-04                    1_GWF-(1,15107)
        232          5         32 -1.37267536E-02                    1_GWF-(1,24665)  4.20091339E-04                    1_GWF-(1,11460)
        233          5         33 -1.63934574E-02                    1_GWF-(1,24701)  3.23461255E-04                    1_GWF-(1,15107)
        234          5         34 -1.66689583E-02                    1_GWF-(1,24701) -1.53938980E-04                    1_GWF-(1,11460)
        235          5         35 -1.39902505E-02                    1_GWF-(1,24782)  3.99778296E-04                    1_GWF-(1,11460)
        236          5         36  1.69489285E-02                    1_GWF-(1,26588)  3.26737662E-04                    1_GWF-(1,15107)
        237          5         37 -1.47118595E-02                    1_GWF-(1,21420) -3.30872384E-04                    1_GWF-(1,15107)
        238          5         38 -1.30105965E-02                    1_GWF-(1,21409)  3.92218920E-04                    1_GWF-(1,11460)
        239          5         39 -1.09086678E-02                    1_GWF-(1,24316) -1.97055603E-04                    1_GWF-(1,11460)
        240          5         40 -1.51270010E-02                    1_GWF-(1,26665) -2.11673751E-04                    1_GWF-(1,15107)
        241          5         41 -1.39949393E-02                    1_GWF-(1,26666)  3.22710121E-04                    1_GWF-(1,11460)
        242          5         42 -1.36637680E-02                    1_GWF-(1,26665)  2.67124046E-04                    1_GWF-(1,14801)
        243          5         43 -9.71467653E-03                    1_GWF-(1,26666) -2.11285680E-04                    1_GWF-(1,11460)
        244          5         44  9.82569249E-03                    1_GWF-(1,26217)  3.51775689E-04                    1_GWF-(1,11460)
        245          5         45  1.14433811E-02                    1_GWF-(1,26218) -2.05789269E-04                    1_GWF-(1,11460)
        246          5         46 -9.35334911E-03                     1_GWF-(1,8008)  4.17151513E-04                    1_GWF-(1,15107)
        247          5         47 -1.04666196E-02                    1_GWF-(1,26217) -4.06156113E-04                    1_GWF-(1,15107)
        248          5         48 -1.06149887E-02                    1_GWF-(1,26218)  4.90819277E-04                    1_GWF-(1,15107)
        249          5         49  9.27451379E-03                    1_GWF-(1,26218) -3.64685701E-04                    1_GWF-(1,15107)
        250          5         50  9.28826478E-03                    1_GWF-(1,26217)  4.68503229E-04                    1_GWF-(1,15107)
        251          6          1 -1.96796807E-02                    1_GWF-(1,11459) -2.95943910E-04                    1_GWF-(1,11459)
        252          6          2 -6.84569926E-03                    1_GWF-(1,11456)  5.61030191E-04                    1_GWF-(1,15107)
        253          6          3  1.19324344E-02                    1_GWF-(1,26218) -5.12764009E-04                    1_GWF-(1,15107)
        254          6          4 -1.01444943E-02                    1_GWF-(1,26218)  2.80730534E-04                    1_GWF-(1,15107)
        255          6          5 -1.58266580E-02                    1_GWF-(1,11456)  1.14946091E-04                    1_GWF-(1,14938)
        256          6          6  2.13339246E-02                    1_GWF-(1,11456)  1.08331167E-04                    1_GWF-(1,11459)
        257          6          7 -8.86032239E-03                    1_GWF-(1,11456)  9.67168175E-05                    1_GWF-(1,14798)
        258          6          8 -1.20355166E-02                    1_GWF-(1,11456)  1.34139015E-04                    1_GWF-(1,14799)
        259          6          9  2.06683093E-02                    1_GWF-(1,11456)  2.07742930E-04                    1_GWF-(1,15107)
        260          6         10 -8.83527459E-03                    1_GWF-(1,11456) -1.47555686E-04                    1_GWF-(1,15107)
        261          6         11 -1.15375609E-02                    1_GWF-(1,11456)  9.10080662E-05                    1_GWF-(1,14798)
        262          6         12  1.83419838E-02                    1_GWF-(1,11456)  1.58870480E-04                    1_GWF-(1,15107)
        263          6         13  7.26038781E-03                    1_GWF-(1,24313) -1.90049850E-04                    1_GWF-(1,15107)
        264          6         14 -1.09376747E-02                    1_GWF-(1,11456)  2.25644509E-04                    1_GWF-(1,15107)
        265          6         15  1.66510517E-02                    1_GWF-(1,11456) -1.35367458E-04                    1_GWF-(1,15107)
        266          6         16  6.91204600E-03                    1_GWF-(1,21413)  1.01900683E-04                    1_GWF-(1,15107)
        267          6         17 -1.07847595E-02                    1_GWF-(1,11456)  1.34627846E-04                    1_GWF-(1,15107)
        268          6         18  1.39005452E-02                    1_GWF-(1,11456)  1.49512042E-04                    1_GWF-(1,14799)
        269          6         19  5.45155025E-03                    1_GWF-(1,24678)  2.93597337E-04                    1_GWF-(1,15107)
        270          6         20 -7.50953311E-03                    1_GWF-(1,11456) -2.41993647E-04                    1_GWF-(1,15107)
        271          6         21  1.09363591E-02                    1_GWF-(1,11456)  2.30103882E-04                    1_GWF-(1,15107)
        272          6         22 -5.51355145E-03                    1_GWF-(1,11456) -1.77960205E-04                    1_GWF-(1,15107)
        273          6         23 -3.76180908E-03                    1_GWF-(1,26649)  2.04214638E-04                    1_GWF-(1,15107)
        274          6         24  6.37860634E-03                    1_GWF-(1,11456)  5.96392632E-05                    1_GWF-(1,15107)
        275          6         25  5.94336483E-03                    1_GWF-(1,26487) -2.05499771E-04                    1_GWF-(1,15107)
        276          6         26 -5.79977771E-03                    1_GWF-(1,11456)  2.77736984E-04                    1_GWF-(1,15107)
        277          6         27  6.98071716E-03                    1_GWF-(1,11456) -2.11034630E-04                    1_GWF-(1,15107)
        278          6         28  3.57269804E-03                    1_GWF-(1,26486)  2.84087617E-04                    1_GWF-(1,15107)
        279          6         29  4.14970069E-03                    1_GWF-(1,26649) -1.71327670E-04                    1_GWF-(1,15107)
        280          6         30  5.28296939E-03                    1_GWF-(1,11456)  1.16381142E-04                    1_GWF-(1,15107)
        281          6         31  5.94972219E-03                    1_GWF-(1,26649)  1.18908085E-04                    1_GWF-(1,11455)
        282          6         32  5.11159001E-03                    1_GWF-(1,26622) -1.12222683E-04                    1_GWF-(1,15107)
        283          6         33 -4.01828132E-03                    1_GWF-(1,26622)  1.43214307E-04                    1_GWF-(1,15107)
        284          6         34 -3.79887157E-03                    1_GWF-(1,26623)  1.36756080E-04                    1_GWF-(1,11455)
        285          6         35 -3.54898993E-03                    1_GWF-(1,26586)  6.26038690E-05                    1_GWF-(1,14801)
        286          6         36 -4.10847293E-03                    1_GWF-(1,26623) -1.13751901E-04                    1_GWF-(1,11455)
        287          6         37 -4.46056519E-03                    1_GWF-(1,26350)  1.63511753E-04                    1_GWF-(1,11455)
        288          6         38 -5.12059237E-03                    1_GWF-(1,26422)  1.94785871E-04                    1_GWF-(1,15107)
        289          6         39 -4.45117578E-03                    1_GWF-(1,26350) -1.17402944E-04                    1_GWF-(1,15107)
        290          6         40 -4.22896458E-03                    1_GWF-(1,26422)  1.95471860E-04                    1_GWF-(1,11455)
        291          6         41 -3.74396558E-03                    1_GWF-(1,26350) -1.10440065E-04                    1_GWF-(1,11455)
        292          6         42 -3.19950526E-03                    1_GWF-(1,20572)  6.58509684E-05                    1_GWF-(1,14801)
        293          6         43 -2.34054373E-03                    1_GWF-(1,20571)  1.64476011E-04                    1_GWF-(1,11455)
        294          6         44 -2.36519803E-03                    1_GWF-(1,16540) -1.76556626E-04                    1_GWF-(1,11455)
        295          6         45 -2.71567927E-03                    1_GWF-(1,16579)  1.00524551E-04                    1_GWF-(1,15107)
        296          6         46  2.57370937E-03                    1_GWF-(1,26350) -1.45888578E-04                    1_GWF-(1,15107)
        297          6         47  3.35083580E-03                    1_GWF-(1,16538) -2.13370172E-04                    1_GWF-(1,11455)
        298          6         48  3.76023065E-03                    1_GWF-(1,16194) -1.51143059E-04                    1_GWF-(1,15107)
        299          6         49  3.76859526E-03                    1_GWF-(1,16113)  1.79054676E-04                    1_GWF-(1,15107)
        300          6         50  2.98590512E-03                    1_GWF-(1,16126) -3.52744280E-04                    1_GWF-(1,11455)
        301          7          1 -1.44730315E-02                    1_GWF-(1,11456)  6.05264954E-05                    1_GWF-(1,15107)
        302          7          2  4.37726117E-03                    1_GWF-(1,11380) -1.63727169E-04                    1_GWF-(1,15107)
        303          7          3  4.76505988E-03                    1_GWF-(1,11455)  1.82520931E-04                    1_GWF-(1,15107)
        304          7          4 -3.13061944E-03                    1_GWF-(1,16580) -1.11322629E-04                    1_GWF-(1,15107)
        305          7          5  4.85158064E-03                    1_GWF-(1,11380)  8.71574735E-05                    1_GWF-(1,15107)
        306          7          6  7.83014468E-03                    1_GWF-(1,11455) -5.53412627E-05                    1_GWF-(1,15107)
        307          7          7 -4.96469016E-03                    1_GWF-(1,11455)  3.45616764E-05                    1_GWF-(1,14798)
        308          7          8 -2.07975408E-03                    1_GWF-(1,11463)  4.63286684E-05                    1_GWF-(1,14801)
        309          7          9  3.68088810E-03                    1_GWF-(1,11455)  4.80428695E-05                    1_GWF-(1,14938)
        310          7         10  3.92931301E-03                    1_GWF-(1,11380)  8.49230977E-05                    1_GWF-(1,15107)
        311          7         11 -2.72248908E-03                    1_GWF-(1,11380)  7.60999015E-05                    1_GWF-(1,14938)
        312          7         12 -2.83538533E-03                    1_GWF-(1,11382)  1.29010898E-04                    1_GWF-(1,15107)
        313          7         13  2.92025945E-03                    1_GWF-(1,26422) -8.21380366E-05                    1_GWF-(1,15107)
        314          7         14  2.55817990E-03                    1_GWF-(1,26350)  6.12899671E-05                    1_GWF-(1,15107)
        315          7         15  2.12060842E-03                    1_GWF-(1,26623)  3.91481459E-05                    1_GWF-(1,14801)
        316          7         16 -2.50206917E-03                    1_GWF-(1,11381)  4.78533894E-05                    1_GWF-(1,14799)
        317          7         17 -1.91947476E-03                    1_GWF-(1,11454)  6.66172221E-05                    1_GWF-(1,15107)
        318          7         18 -2.05992088E-03                    1_GWF-(1,26623) -5.87507808E-05                    1_GWF-(1,15107)
        319          7         19 -2.46149535E-03                    1_GWF-(1,26622)  2.52903350E-05                    1_GWF-(1,15107)
        320          7         20 -2.74434805E-03                    1_GWF-(1,26649)  3.44899671E-05                    1_GWF-(1,15107)
        321          7         21 -2.19656414E-03                    1_GWF-(1,26622)  6.37046117E-05                    1_GWF-(1,14938)
        322          7         22  2.44209021E-03                    1_GWF-(1,11382)  1.16712174E-04                    1_GWF-(1,15107)
        323          7         23 -1.72182085E-03                    1_GWF-(1,26486) -7.85182682E-05                    1_GWF-(1,15107)
        324          7         24 -1.77742808E-03                    1_GWF-(1,26487)  6.88377620E-05                    1_GWF-(1,15107)
        325          7         25 -2.32043493E-03                    1_GWF-(1,26420)  2.66429238E-05                    1_GWF-(1,14801)
        326          7         26 -2.48397171E-03                    1_GWF-(1,26487) -4.79699086E-05                    1_GWF-(1,15107)
        327          7         27 -1.93099112E-03                    1_GWF-(1,26420)  9.40501875E-05                    1_GWF-(1,15107)
        328          7         28  1.83433116E-03                    1_GWF-(1,11457)  5.68226090E-05                    1_GWF-(1,14938)
        329          7         29 -1.38582345E-03                    1_GWF-(1,24429)  5.12115984E-05                    1_GWF-(1,15107)
        330          7         30 -1.57127081E-03                    1_GWF-(1,26588)  2.35659904E-05                    1_GWF-(1,14801)
        331          7         31  1.53902628E-03                    1_GWF-(1,26588)  3.42407036E-05                    1_GWF-(1,14801)
        332          7         32  1.47318473E-03                    1_GWF-(1,26543)  8.60715203E-05                    1_GWF-(1,15107)
        333          7         33 -1.73672795E-03                    1_GWF-(1,24702) -6.70574453E-05                    1_GWF-(1,15107)
        334          7         34 -1.95531632E-03                    1_GWF-(1,24701)  7.44489778E-05                    1_GWF-(1,15107)
        335          7         35 -1.69384758E-03                    1_GWF-(1,24689)  3.94480963E-05                    1_GWF-(1,14938)
        336          7         36 -1.66395388E-03                    1_GWF-(1,21424)  4.60499070E-05                    1_GWF-(1,15107)
        337          7         37 -1.58811293E-03                    1_GWF-(1,21420) -3.23266365E-05                    1_GWF-(1,15107)
        338          7         38 -1.52644575E-03                    1_GWF-(1,24313) -2.69525740E-05                    1_GWF-(1,11459)
        339          7         39 -1.28169556E-03                    1_GWF-(1,26218)  4.18827322E-05                    1_GWF-(1,11459)
        340          7         40 -1.46876634E-03                    1_GWF-(1,26665) -3.03550113E-05                    1_GWF-(1,15107)
        341          7         41 -1.56683267E-03                    1_GWF-(1,26666)  2.42351636E-05                    1_GWF-(1,15107)
        342          7         42 -1.71258524E-03                    1_GWF-(1,26665)  4.12444781E-05                    1_GWF-(1,11459)
        343          7         43 -1.33541750E-03                    1_GWF-(1,26666)  2.42740212E-05                    1_GWF-(1,14801)
        344          7         44 -1.09180757E-03                    1_GWF-(1,26665) -2.23346065E-05                    1_GWF-(1,11459)
        345          7         45  1.30285607E-03                    1_GWF-(1,26218)  4.41703733E-05                    1_GWF-(1,11459)
        346          7         46  1.17629831E-03                    1_GWF-(1,26217)  5.32970110E-05                    1_GWF-(1,15107)
        347          7         47  1.27819150E-03                    1_GWF-(1,26218) -5.35504520E-05                    1_GWF-(1,15107)
        348          7         48 -1.15623741E-03                    1_GWF-(1,26218)  6.56747254E-05                    1_GWF-(1,15107)
        349          7         49  1.22966317E-03                    1_GWF-(1,26218)  4.54302053E-05                    1_GWF-(1,14938)
        350          7         50  1.22854871E-03                    1_GWF-(1,26217)  5.08528656E-05                    1_GWF-(1,15107)
        351          8          1 -1.06818958E-02                    1_GWF-(1,11455)  1.73714178E-05                    1_GWF-(1,14799)
        352          8          2 -4.77672203E-03                    1_GWF-(1,11380)  4.76933905E-05                    1_GWF-(1,15107)
        353          8          3  4.34722006E-03                    1_GWF-(1,11380) -4.58982217E-05                    1_GWF-(1,15107)
        354          8          4  2.34497204E-03                    1_GWF-(1,11468)  5.04953382E-05                    1_GWF-(1,15107)
        355          8          5 -4.14823992E-03                    1_GWF-(1,11380)  2.37553104E-05                    1_GWF-(1,14938)
        356          8          6  3.22217856E-03                    1_GWF-(1,11380)  1.69031015E-05                    1_GWF-(1,15107)
        357          8          7  2.17164490E-03                    1_GWF-(1,11454)  1.12271687E-05                    1_GWF-(1,14799)
        358          8          8 -1.85522847E-03                    1_GWF-(1,11454)  1.39235181E-05                    1_GWF-(1,14799)
        359          8          9  1.52211436E-03                    1_GWF-(1,11380)  2.09759718E-05                    1_GWF-(1,15107)
        360          8         10 -1.25438652E-03                    1_GWF-(1,11470) -1.73042971E-05                    1_GWF-(1,15107)
        361          8         11 -1.13784786E-03                    1_GWF-(1,11454)  9.73202834E-06                    1_GWF-(1,15107)
        362          8         12 -1.20746698E-03                    1_GWF-(1,11453)  5.77879614E-06                    1_GWF-(1,15107)
        363          8         13  9.61219294E-04                    1_GWF-(1,24313) -1.24758539E-05                    1_GWF-(1,15107)
        364          8         14 -1.47880248E-03                    1_GWF-(1,11466)  2.75354686E-05                    1_GWF-(1,15107)
        365          8         15 -1.45404037E-03                    1_GWF-(1,11381) -2.61108179E-05                    1_GWF-(1,15107)
        366          8         16  1.82801005E-03                    1_GWF-(1,11381)  3.38794293E-05                    1_GWF-(1,15107)
        367          8         17  1.45609659E-03                    1_GWF-(1,11458) -2.47424224E-05                    1_GWF-(1,15107)
        368          8         18 -1.17059052E-03                    1_GWF-(1,11381)  2.36513046E-05                    1_GWF-(1,15107)
        369          8         19  7.30569118E-04                    1_GWF-(1,11381)  1.50863490E-05                    1_GWF-(1,14801)
        370          8         20  9.68371914E-04                    1_GWF-(1,11458) -2.32871801E-05                    1_GWF-(1,15107)
        371          8         21 -8.59502133E-04                    1_GWF-(1,11381)  2.84758204E-05                    1_GWF-(1,15107)
        372          8         22 -8.37231255E-04                    1_GWF-(1,11382) -2.22793522E-05                    1_GWF-(1,15107)
        373          8         23  7.39268121E-04                    1_GWF-(1,11458)  3.62532050E-05                    1_GWF-(1,15107)
        374          8         24 -7.99851374E-04                    1_GWF-(1,11458) -1.97390437E-05                    1_GWF-(1,15107)
        375          8         25 -7.06380518E-04                    1_GWF-(1,26588)  1.04069309E-05                    1_GWF-(1,14798)
        376          8         26  6.24673268E-04                    1_GWF-(1,26588)  2.48119811E-05                    1_GWF-(1,15107)
        377          8         27  5.80358916E-04                    1_GWF-(1,26543) -2.34364840E-05                    1_GWF-(1,15107)
        378          8         28  6.33038096E-04                    1_GWF-(1,26588)  2.42439956E-05                    1_GWF-(1,15107)
        379          8         29 -6.66788971E-04                    1_GWF-(1,11438) -1.81567314E-05                    1_GWF-(1,15107)
        380          8         30  5.35014606E-04                    1_GWF-(1,11438)  2.39900614E-05                    1_GWF-(1,15107)
        381          8         31  5.38322550E-04                    1_GWF-(1,26649) -9.77622468E-06                    1_GWF-(1,15107)
        382          8         32 -4.36607966E-04                    1_GWF-(1,11438)  8.16183464E-06                    1_GWF-(1,14801)
        383          8         33  5.28294183E-04                    1_GWF-(1,26420)  1.31276163E-05                    1_GWF-(1,15107)
        384          8         34 -4.91536114E-04                    1_GWF-(1,26649)  1.07951444E-05                    1_GWF-(1,14799)
        385          8         35 -5.16863645E-04                    1_GWF-(1,26487)  7.11488373E-06                    1_GWF-(1,14798)
        386          8         36 -6.51416930E-04                    1_GWF-(1,26486)  8.40429640E-06                    1_GWF-(1,14801)
        387          8         37 -5.52034298E-04                    1_GWF-(1,26544)  1.21212562E-05                    1_GWF-(1,14799)
        388          8         38 -6.05994380E-04                    1_GWF-(1,26486)  1.74078618E-05                    1_GWF-(1,15107)
        389          8         39 -5.96828588E-04                    1_GWF-(1,26350) -1.89557249E-05                    1_GWF-(1,15107)
        390          8         40 -5.43422428E-04                    1_GWF-(1,26422)  2.10803952E-05                    1_GWF-(1,15107)
        391          8         41 -4.38139996E-04                    1_GWF-(1,26350)  1.09575268E-05                    1_GWF-(1,14938)
        392          8         42 -3.83759547E-04                    1_GWF-(1,20583)  7.70779344E-06                    1_GWF-(1,14798)
        393          8         43 -3.58425961E-04                    1_GWF-(1,11453)  6.16975155E-06                    1_GWF-(1,14802)
        394          8         44  3.78440325E-04                    1_GWF-(1,11381)  7.82074179E-06                    1_GWF-(1,14801)
        395          8         45  3.09600660E-04                    1_GWF-(1,26486) -8.68452051E-06                    1_GWF-(1,14938)
        396          8         46 -3.22100672E-04                    1_GWF-(1,11453) -1.54721687E-05                    1_GWF-(1,15107)
        397          8         47  3.41501622E-04                    1_GWF-(1,16538)  2.21532534E-05                    1_GWF-(1,15107)
        398          8         48  4.27530586E-04                    1_GWF-(1,16237) -2.07370815E-05                    1_GWF-(1,15107)
        399          8         49  4.02413282E-04                    1_GWF-(1,16230)  2.32545863E-05                    1_GWF-(1,15107)
        400          8         50  3.98136493E-04                    1_GWF-(1,11382) -2.08867905E-05                    1_GWF-(1,15107)
        401          9          1 -3.84543091E-04                    1_GWF-(1,11453)  2.28633027E-05                    1_GWF-(1,15107)
        402          9          2 -4.40277226E-04                    1_GWF-(1,16230) -1.54390817E-05                    1_GWF-(1,15107)
        403          9          3 -4.01022443E-04                    1_GWF-(1,16238)  1.79814569E-05                    1_GWF-(1,15107)
        404          9          4 -4.10762251E-04                    1_GWF-(1,11382) -1.01701058E-05                    1_GWF-(1,15107)
        405          9          5 -3.21575959E-04                    1_GWF-(1,20233)  7.80224818E-06                    1_GWF-(1,14798)
        406          9          6  2.77431280E-04                    1_GWF-(1,11384)  4.86966601E-06                    1_GWF-(1,14824)
        407          9          7 -2.75883795E-04                    1_GWF-(1,11382)  7.19435874E-06                    1_GWF-(1,14801)
        408          9          8 -2.78866643E-04                    1_GWF-(1,26588)  8.44302249E-06                    1_GWF-(1,14798)
        409          9          9 -3.22861751E-04                    1_GWF-(1,26622)  5.68657187E-06                    1_GWF-(1,14796)
        410          9         10 -2.96691254E-04                    1_GWF-(1,26623)  5.04659791E-06                    1_GWF-(1,14824)
        411          9         11  2.68689881E-04                    1_GWF-(1,26623)  6.56574794E-06                    1_GWF-(1,15107)
        412          9         12  2.88745998E-04                    1_GWF-(1,26486) -8.06774354E-06                    1_GWF-(1,15107)
        413          9         13  3.09292573E-04                    1_GWF-(1,11466)  1.47205709E-05                    1_GWF-(1,15107)
        414          9         14  2.88558904E-04                    1_GWF-(1,26422) -1.02534062E-05                    1_GWF-(1,15107)
        415          9         15  2.50678422E-04                    1_GWF-(1,26350)  1.04393167E-05                    1_GWF-(1,15107)
        416          9         16 -2.50380178E-04                    1_GWF-(1,26350)  6.74344533E-06                    1_GWF-(1,14938)
        417          9         17 -2.36939076E-04                    1_GWF-(1,26422)  5.20059010E-06                    1_GWF-(1,14801)
        418          9         18 -2.31069220E-04                    1_GWF-(1,11438)  6.54491140E-06                    1_GWF-(1,14801)
        419          9         19 -1.84572100E-04                    1_GWF-(1,26486) -8.03631743E-06                    1_GWF-(1,15107)
        420          9         20 -1.99831258E-04                    1_GWF-(1,11486)  1.21641952E-05                    1_GWF-(1,15107)
        421          9         21 -2.67485854E-04                    1_GWF-(1,26588) -8.75524818E-06                    1_GWF-(1,15107)
        422          9         22 -2.72242701E-04                    1_GWF-(1,26589)  8.33427125E-06                    1_GWF-(1,15107)
        423          9         23 -3.15070666E-04                    1_GWF-(1,26588)  3.40870253E-06                    1_GWF-(1,14813)
        424          9         24 -2.53062065E-04                    1_GWF-(1,26422) -5.20750800E-06                    1_GWF-(1,15107)
        425          9         25 -2.49585414E-04                    1_GWF-(1,26420)  1.06948009E-05                    1_GWF-(1,15107)
        426          9         26  1.84181302E-04                     1_GWF-(1,8345) -9.73647179E-06                    1_GWF-(1,15107)
        427          9         27  1.85106294E-04                    1_GWF-(1,26622)  8.25386776E-06                    1_GWF-(1,15107)
        428          9         28  1.98047226E-04                    1_GWF-(1,26649)  5.58334037E-06                    1_GWF-(1,14801)
        429          9         29  2.05652705E-04                    1_GWF-(1,26622) -5.19607187E-06                    1_GWF-(1,15107)
        430          9         30 -1.76140037E-04                    1_GWF-(1,24961)  6.93681452E-06                    1_GWF-(1,15107)
        431          9         31 -2.12768747E-04                    1_GWF-(1,11382) -5.61047806E-06                    1_GWF-(1,15107)
        432          9         32 -2.42628609E-04                    1_GWF-(1,11381)  7.35296738E-06                    1_GWF-(1,15107)
        433          9         33 -2.46530490E-04                    1_GWF-(1,26665)  4.73031739E-06                    1_GWF-(1,14798)
        434          9         34  2.59100199E-04                    1_GWF-(1,26665)  4.28244832E-06                    1_GWF-(1,15022)
        435          9         35 -2.91687297E-04                    1_GWF-(1,11381)  1.00561005E-05                    1_GWF-(1,15107)
        436          9         36  2.29623969E-04                    1_GWF-(1,11458) -7.84163611E-06                    1_GWF-(1,15107)
        437          9         37  2.13485110E-04                    1_GWF-(1,11381)  7.37212512E-06                    1_GWF-(1,15107)
        438          9         38 -1.79783033E-04                    1_GWF-(1,24313)  5.42404670E-06                    1_GWF-(1,14938)
        439          9         39 -2.47487214E-04                    1_GWF-(1,11466)  5.67205669E-06                    1_GWF-(1,15107)
        440          9         40  2.21250080E-04                    1_GWF-(1,11466) -4.98027952E-06                    1_GWF-(1,15107)
        441          9         41 -1.71662757E-04                    1_GWF-(1,11417)  3.42875266E-06                    1_GWF-(1,14801)
        442          9         42  1.97819495E-04                    1_GWF-(1,11417)  4.20413849E-06                    1_GWF-(1,14801)
        443          9         43  1.94136865E-04                    1_GWF-(1,11454)  2.40606644E-06                    1_GWF-(1,15022)
        444          9         44 -2.50430489E-04                    1_GWF-(1,11466)  5.89721737E-06                    1_GWF-(1,15107)
        445          9         45  2.20059065E-04                    1_GWF-(1,11468) -5.14965142E-06                    1_GWF-(1,15107)
        446          9         46  3.22719046E-04                    1_GWF-(1,11381)  7.49313489E-06                    1_GWF-(1,15107)
        447          9         47 -2.13567452E-04                    1_GWF-(1,11468)  7.29980343E-06                    1_GWF-(1,14938)
        448          9         48 -2.60233724E-04                    1_GWF-(1,11380)  8.03107047E-06                    1_GWF-(1,15107)
        449          9         49  3.36816893E-04                    1_GWF-(1,11381)  2.77618918E-06                    1_GWF-(1,14799)
        450          9         50  1.81256348E-04                    1_GWF-(1,11380)  3.98922033E-06                    1_GWF-(1,14938)
        451         10          1 -2.16842799E-04                    1_GWF-(1,11380)  1.96807654E-06                    1_GWF-(1,14801)
        452         10          2 -1.41127039E-04                    1_GWF-(1,26588)  3.29646456E-06                    1_GWF-(1,14798)
        453         10          3  1.88906815E-04                    1_GWF-(1,11380)  2.33030941E-06                    1_GWF-(1,14938)
        454         10          4  1.33610421E-04                    1_GWF-(1,11381)  2.97717398E-06                    1_GWF-(1,15107)
        455         10          5 -1.33604418E-04                    1_GWF-(1,11381)  2.90264124E-06                    1_GWF-(1,14799)
        456         10          6 -1.12048560E-04                    1_GWF-(1,11470)  4.59352222E-06                    1_GWF-(1,15107)
        457         10          7  1.08728577E-04                    1_GWF-(1,21674)  2.86693762E-06                    1_GWF-(1,14938)
        458         10          8  1.04274053E-04                    1_GWF-(1,11385)  3.36330674E-06                    1_GWF-(1,14798)
        459         10          9  1.06340610E-04                    1_GWF-(1,20560)  2.74845337E-06                    1_GWF-(1,14799)
        460         10         10  1.08016790E-04                    1_GWF-(1,20578)  3.35521944E-06                    1_GWF-(1,15107)
        461         10         11  9.57151694E-05                    1_GWF-(1,11464) -4.48534359E-06                    1_GWF-(1,15107)
        462         10         12  9.81692581E-05                    1_GWF-(1,24586)  4.47158892E-06                    1_GWF-(1,15107)
        463         10         13  1.12818395E-04                    1_GWF-(1,24312)  2.59555593E-06                    1_GWF-(1,14938)
        464         10         14  9.99201296E-05                    1_GWF-(1,21420)  1.64858402E-06                    1_GWF-(1,14798)
        465         10         15  1.03237006E-04                    1_GWF-(1,26487)  2.23305624E-06                    1_GWF-(1,14798)
        466         10         16  9.08301084E-05                    1_GWF-(1,21402)  3.34031405E-06                    1_GWF-(1,14938)
        467         10         17  1.03146790E-04                    1_GWF-(1,24689)  3.95858539E-06                    1_GWF-(1,15107)
        468         10         18  9.21283027E-05                    1_GWF-(1,24702)  3.31175932E-06                    1_GWF-(1,14799)
        469         10         19  8.30485393E-05                    1_GWF-(1,24679)  3.25478661E-06                    1_GWF-(1,15107)
        470         10         20  7.81294935E-05                    1_GWF-(1,11380)  1.81987951E-06                    1_GWF-(1,14801)
        471         10         21  7.28899077E-05                    1_GWF-(1,26665)  1.54834709E-06                    1_GWF-(1,14835)
        472         10         22 -7.88946823E-05                    1_GWF-(1,26665)  2.18751143E-06                    1_GWF-(1,15107)
        473         10         23  6.80267497E-05                    1_GWF-(1,11380)  1.78272949E-06                    1_GWF-(1,14801)
        474         10         24 -5.72839098E-05                     1_GWF-(1,8363)  1.38289244E-06                    1_GWF-(1,15107)
        475         10         25 -7.04337717E-05                     1_GWF-(1,8444)  1.74053051E-06                    1_GWF-(1,14798)
        476         10         26  7.09664285E-05                    1_GWF-(1,11458)  1.80035413E-06                    1_GWF-(1,14801)
        477         10         27  7.38195437E-05                    1_GWF-(1,26543)  1.42679213E-06                    1_GWF-(1,15107)
        478         10         28  9.90727679E-05                    1_GWF-(1,26588)  1.32290158E-06                    1_GWF-(1,14799)
        479         10         29  8.31615003E-05                    1_GWF-(1,26543)  1.17545372E-06                    1_GWF-(1,15107)
        480         10         30  7.00980846E-05                    1_GWF-(1,26588)  1.53240097E-06                    1_GWF-(1,14801)
        481         10         31  5.17074963E-05                    1_GWF-(1,11486)  1.16045285E-06                    1_GWF-(1,14835)
        482         10         32  7.00439485E-05                    1_GWF-(1,11380)  1.75730412E-06                    1_GWF-(1,15107)
        483         10         33 -6.26769401E-05                    1_GWF-(1,11458)  2.13216827E-06                    1_GWF-(1,14801)
        484         10         34  4.83488173E-05                    1_GWF-(1,26422)  2.30919183E-06                    1_GWF-(1,15107)
        485         10         35 -6.61123985E-05                    1_GWF-(1,26588)  1.28412259E-06                    1_GWF-(1,14799)
        486         10         36 -7.20028936E-05                    1_GWF-(1,26622)  1.78715419E-06                    1_GWF-(1,14801)
        487         10         37 -6.86633370E-05                    1_GWF-(1,26623)  2.05369352E-06                    1_GWF-(1,15107)
        488         10         38 -6.64707940E-05                    1_GWF-(1,26486)  2.16500733E-06                    1_GWF-(1,14938)
        489         10         39 -6.27506329E-05                    1_GWF-(1,26350)  2.32343170E-06                    1_GWF-(1,15107)
        490         10         40 -6.47729309E-05                    1_GWF-(1,26422)  1.63825474E-06                    1_GWF-(1,14801)
        491         10         41 -5.75967967E-05                    1_GWF-(1,26350)  9.89015315E-07                    1_GWF-(1,15107)
        492         10         42 -5.22954775E-05                    1_GWF-(1,11380)  1.02543643E-06                    1_GWF-(1,14796)
        493         10         43  4.33782844E-05                    1_GWF-(1,11369)  1.78851941E-06                    1_GWF-(1,14801)
        494         10         44  5.73933175E-05                    1_GWF-(1,11382)  2.43324733E-06                    1_GWF-(1,15107)
        495         10         45 -5.46718478E-05                    1_GWF-(1,11380) -2.42238366E-06                    1_GWF-(1,15107)
        496         10         46  4.67342169E-05                    1_GWF-(1,11369) -2.27295690E-06                    1_GWF-(1,14938)
        497         10         47  5.78659925E-05                    1_GWF-(1,11382)  2.08207355E-06                    1_GWF-(1,14938)
        498         10         48  4.61078994E-05                    1_GWF-(1,16579)  2.29451169E-06                    1_GWF-(1,15107)
        499         10         49  4.90440367E-05                    1_GWF-(1,16236) -1.80348326E-06                    1_GWF-(1,15107)
        500         10         50  5.00624816E-05                    1_GWF-(1,11453)  1.14091854E-06                    1_GWF-(1,15107)
        501         11          1 -4.13844154E-05                    1_GWF-(1,11453) -1.44509813E-06                    1_GWF-(1,15107)
        502         11          2 -5.15865609E-05                    1_GWF-(1,16233)  1.58154019E-06                    1_GWF-(1,15107)
        503         11          3 -4.27839163E-05                    1_GWF-(1,26420)  1.52976808E-06                    1_GWF-(1,14799)
        504         11          4 -5.52463072E-05                    1_GWF-(1,26487)  7.51920066E-07                    1_GWF-(1,14801)
        505         11          5 -5.55719553E-05                    1_GWF-(1,26420)  6.82625909E-07                    1_GWF-(1,14843)
        506         11          6 -5.28258735E-05                    1_GWF-(1,26487) -8.78825764E-07                    1_GWF-(1,15107)
        507         11          7 -3.88273108E-05                    1_GWF-(1,26486)  1.23472134E-06                    1_GWF-(1,15107)
        508         11          8 -2.62698457E-05                    1_GWF-(1,19030) -7.90316505E-07                    1_GWF-(1,15939)
        509         11          9  3.39491868E-05                    1_GWF-(1,11380)  1.03408109E-06                    1_GWF-(1,15107)
        510         11         10 -3.15363493E-05                    1_GWF-(1,11453)  6.99504319E-07                    1_GWF-(1,14938)
        511         11         11 -3.01573222E-05                    1_GWF-(1,11458)  8.02114520E-07                    1_GWF-(1,14823)
        512         11         12  3.63873973E-05                    1_GWF-(1,26486)  7.16486263E-07                    1_GWF-(1,15107)
        513         11         13  3.93419480E-05                    1_GWF-(1,26544)  8.67913923E-07                    1_GWF-(1,14938)
        514         11         14  4.04602033E-05                    1_GWF-(1,26422)  1.02248496E-06                    1_GWF-(1,14823)
        515         11         15  3.30428913E-05                    1_GWF-(1,26350)  7.13781664E-07                    1_GWF-(1,14799)
        516         11         16  3.19317930E-05                    1_GWF-(1,26486)  7.51966060E-07                    1_GWF-(1,14798)
        517         11         17  2.90832235E-05                    1_GWF-(1,26588)  6.49122553E-07                    1_GWF-(1,14801)
        518         11         18 -3.57427034E-05                    1_GWF-(1,26588)  6.62928423E-07                    1_GWF-(1,14801)
        519         11         19 -3.08519203E-05                    1_GWF-(1,26543)  5.57143180E-07                    1_GWF-(1,14798)
        520         11         20 -2.96461959E-05                    1_GWF-(1,26422) -4.89521995E-07                    1_GWF-(1,11234)
        521         11         21 -2.76444951E-05                    1_GWF-(1,26350)  5.76920063E-07                    1_GWF-(1,14801)
        522         11         22 -2.99019627E-05                    1_GWF-(1,26422)  6.28468871E-07                    1_GWF-(1,15107)
        523         11         23 -2.52468166E-05                    1_GWF-(1,26588)  5.07560733E-07                    1_GWF-(1,14826)
        524         11         24 -2.35076709E-05                    1_GWF-(1,26543)  6.78677508E-07                    1_GWF-(1,14823)
        525         11         25 -2.58466644E-05                    1_GWF-(1,26588)  5.88560991E-07                    1_GWF-(1,14801)
        526         11         26  2.59182591E-05                     1_GWF-(1,8444)  6.64901018E-07                    1_GWF-(1,14799)
        527         11         27  2.41366296E-05                    1_GWF-(1,11380)  5.76664073E-07                    1_GWF-(1,14823)
        528         11         28 -2.88323110E-05                    1_GWF-(1,11380)  6.85181249E-07                    1_GWF-(1,14801)
        529         11         29 -2.27385342E-05                    1_GWF-(1,24429)  8.20194169E-07                    1_GWF-(1,14798)
        530         11         30 -2.31345196E-05                    1_GWF-(1,24961) -7.58547101E-07                    1_GWF-(1,15107)
[...]
        535         11         35 -2.36967338E-05                    1_GWF-(1,26665)  5.83331105E-07                    1_GWF-(1,14938)
        536         11         36 -2.20022610E-05                    1_GWF-(1,21402)  6.60173771E-07                    1_GWF-(1,14798)
        537         11         37 -2.52135330E-05                    1_GWF-(1,11380)  5.96365135E-07                    1_GWF-(1,14938)
        538         11         38  2.82489844E-05                    1_GWF-(1,11380)  7.04335915E-07                    1_GWF-(1,15107)
        539         11         39  1.78618545E-05                    1_GWF-(1,11464) -5.16643695E-07                    1_GWF-(1,15107)
        540         11         40 -2.25019972E-05                    1_GWF-(1,11464)  4.66411191E-07                    1_GWF-(1,14823)
        541         11         41  3.01715946E-05                    1_GWF-(1,11380)  5.99364253E-07                    1_GWF-(1,14801)
        542         11         42 -2.49783298E-05                    1_GWF-(1,26622)  6.34489232E-07                    1_GWF-(1,14799)
        543         11         43 -2.49750289E-05                    1_GWF-(1,11380)  4.16522135E-07                    1_GWF-(1,15107)
        544         11         44  2.37795159E-05                    1_GWF-(1,11380)  3.36461225E-07                    1_GWF-(1,14938)
        545         11         45 -1.70686902E-05                     1_GWF-(1,8035)  4.33401488E-07                    1_GWF-(1,14798)
        546         11         46 -2.45656544E-05                    1_GWF-(1,11380)  3.62261588E-07                    1_GWF-(1,14799)
        547         11         47  3.54088429E-05                    1_GWF-(1,11380)  4.96001424E-07                    1_GWF-(1,14801)
        548         11         48 -2.56609676E-05                    1_GWF-(1,11467)  4.68673874E-07                    1_GWF-(1,14798)
        549         11         49 -1.59977230E-05                    1_GWF-(1,11380) -3.71142992E-07                    1_GWF-(1,11455)
        550         11         50  4.27451744E-05                    1_GWF-(1,11380)  4.71263753E-07                    1_GWF-(1,15107)
        551         12          1 -3.43238902E-05                    1_GWF-(1,11380)  4.20763772E-07                    1_GWF-(1,14799)
        552         12          2 -1.84133082E-05                    1_GWF-(1,26486)  4.61786063E-07                    1_GWF-(1,14798)
        553         12          3  3.21748594E-05                    1_GWF-(1,11380)  4.04767794E-07                    1_GWF-(1,14801)
        554         12          4 -1.71746836E-05                    1_GWF-(1,11380)  3.83046071E-07                    1_GWF-(1,15022)
        555         12          5 -1.49836874E-05                    1_GWF-(1,26218)  5.43773404E-07                    1_GWF-(1,15107)
        556         12          6  2.21662190E-05                    1_GWF-(1,11380)  4.70099754E-07                    1_GWF-(1,14938)
        557         12          7 -1.73177359E-05                    1_GWF-(1,11380)  3.77472151E-07                    1_GWF-(1,15107)
        558         12          8  1.38743826E-05                    1_GWF-(1,11464)  3.99087631E-07                    1_GWF-(1,14798)
        559         12          9  1.48605349E-05                    1_GWF-(1,11380)  2.89296505E-07                    1_GWF-(1,14801)
        560         12         10 -1.77434010E-05                    1_GWF-(1,11380)  2.30107234E-07                    1_GWF-(1,14823)
        561         12         11  1.59482805E-05                    1_GWF-(1,26588) -2.80123200E-07                    1_GWF-(1,15107)
        562         12         12  1.39228495E-05                    1_GWF-(1,11380)  1.74234115E-07                    1_GWF-(1,14798)
        563         12         13  1.34938408E-05                    1_GWF-(1,24313)  2.12988435E-07                    1_GWF-(1,14801)
        564         12         14  1.35277935E-05                    1_GWF-(1,24586) -2.78301693E-07                    1_GWF-(1,15107)
        565         12         15  1.29393886E-05                    1_GWF-(1,21400)  4.07180501E-07                    1_GWF-(1,15107)
        566         12         16  1.24634921E-05                    1_GWF-(1,26420)  3.42372469E-07                    1_GWF-(1,14938)
        567         12         17  1.31572732E-05                    1_GWF-(1,26487)  2.43293371E-07                    1_GWF-(1,14800)
        568         12         18  1.16567609E-05                    1_GWF-(1,24700)  4.19578305E-07                    1_GWF-(1,14798)
        569         12         19 -1.14087738E-05                    1_GWF-(1,11380)  5.28329848E-07                    1_GWF-(1,14938)
        570         12         20  9.57848098E-06                    1_GWF-(1,24750)  6.01871707E-07                    1_GWF-(1,15107)
        571         12         21  9.01627387E-06                    1_GWF-(1,24989) -6.54328455E-07                    1_GWF-(1,15107)
        572         12         22 -1.35220530E-05                    1_GWF-(1,11380)  7.29134231E-07                    1_GWF-(1,15107)
        573         12         23  7.99705886E-06                    1_GWF-(1,11380) -6.03313730E-07                    1_GWF-(1,15107)
        574         12         24 -7.87802193E-06                     1_GWF-(1,8363)  6.79443043E-07                    1_GWF-(1,15107)
        575         12         25 -1.21072419E-05                    1_GWF-(1,11380) -5.10679336E-07                    1_GWF-(1,15107)
        576         12         26  1.04764233E-05                    1_GWF-(1,11380)  5.02270045E-07                    1_GWF-(1,15107)
        577         12         27  7.33957231E-06                    1_GWF-(1,26649) -1.38490526E-07                    1_GWF-(1,15107)
        578         12         28  1.07628251E-05                    1_GWF-(1,26622)  2.06258753E-07                    1_GWF-(1,14799)
        579         12         29  1.16602936E-05                    1_GWF-(1,26623)  5.78530148E-07                    1_GWF-(1,15107)
        580         12         30  1.06481735E-05                    1_GWF-(1,26622) -4.72563250E-07                    1_GWF-(1,15107)
        581         12         31 -9.07916293E-06                    1_GWF-(1,11380)  1.85127564E-07                    1_GWF-(1,15107)
        582         12         32  7.95985970E-06                    1_GWF-(1,26543)  2.26206009E-07                    1_GWF-(1,15107)
        583         12         33  7.89452058E-06                    1_GWF-(1,26665) -4.43216443E-07                    1_GWF-(1,15107)
        584         12         34 -8.67292003E-06                    1_GWF-(1,11380)  4.53397749E-07                    1_GWF-(1,15107)
        585         12         35  8.02786051E-06                    1_GWF-(1,11458)  3.39691197E-07                    1_GWF-(1,14938)
        586         12         36 -5.99764831E-06                    1_GWF-(1,11458)  2.14640904E-07                    1_GWF-(1,14801)
        587         12         37 -7.55488149E-06                    1_GWF-(1,11380)  1.54273153E-07                    1_GWF-(1,14801)
        588         12         38 -6.99458619E-06                    1_GWF-(1,26544)  2.40858096E-07                    1_GWF-(1,14938)
        589         12         39 -7.50994464E-06                    1_GWF-(1,26486)  3.94694326E-07                    1_GWF-(1,15107)
        590         12         40 -6.33491684E-06                    1_GWF-(1,26544) -3.73754710E-07                    1_GWF-(1,15107)
        591         12         41 -6.98509862E-06                    1_GWF-(1,26422)  4.09135951E-07                    1_GWF-(1,15107)
        592         12         42 -5.89501044E-06                    1_GWF-(1,26350) -1.94065348E-07                    1_GWF-(1,15107)
        593         12         43 -6.04629091E-06                    1_GWF-(1,26486)  1.56038864E-07                    1_GWF-(1,14801)
        594         12         44  7.49383257E-06                    1_GWF-(1,26486)  1.75002875E-07                    1_GWF-(1,15107)
        595         12         45  9.06429461E-06                    1_GWF-(1,26487) -2.27570702E-07                    1_GWF-(1,15107)
        596         12         46  9.27667568E-06                    1_GWF-(1,26420)  1.43283182E-07                    1_GWF-(1,15107)
        597         12         47  9.62367049E-06                    1_GWF-(1,26422)  1.46903277E-07                    1_GWF-(1,14801)
        598         12         48  8.14044517E-06                    1_GWF-(1,26350)  1.88242792E-07                    1_GWF-(1,14938)
        599         12         49  6.37224064E-06                    1_GWF-(1,26422)  2.73052352E-07                    1_GWF-(1,15107)
        600         12         50  5.82323069E-06                    1_GWF-(1,26543) -3.21793198E-07                    1_GWF-(1,15107)
        601         13          1 -6.71074283E-06                    1_GWF-(1,26543)  4.50453840E-07                    1_GWF-(1,15107)
        602         13          2 -7.58547929E-06                    1_GWF-(1,26588)  1.25465152E-07                    1_GWF-(1,11455)
        603         13          3 -4.87518567E-06                    1_GWF-(1,16579) -2.88791559E-07                    1_GWF-(1,11455)
        604         13          4 -4.76564030E-06                    1_GWF-(1,26350)  3.63917322E-07                    1_GWF-(1,15107)
        605         13          5 -5.24222381E-06                    1_GWF-(1,26422) -3.47582512E-07                    1_GWF-(1,15107)
        606         13          6 -4.85807876E-06                    1_GWF-(1,26487) -3.00541018E-07                    1_GWF-(1,11455)
        607         13          7 -4.94958231E-06                    1_GWF-(1,26486)  1.60474853E-07                    1_GWF-(1,14799)
        608         13          8 -4.96722401E-06                    1_GWF-(1,26622)  2.62179094E-07                    1_GWF-(1,11455)
        609         13          9 -5.10669118E-06                    1_GWF-(1,26623)  3.28518299E-07                    1_GWF-(1,15107)
        610         13         10  4.49752533E-06                    1_GWF-(1,26350) -2.74723369E-07                    1_GWF-(1,15107)
        611         13         11  4.81986314E-06                    1_GWF-(1,26422)  3.07272627E-07                    1_GWF-(1,11455)
        612         13         12  4.13860936E-06                    1_GWF-(1,26350) -2.71958969E-07                    1_GWF-(1,11455)
        613         13         13  4.69318081E-06                    1_GWF-(1,26486)  1.28452277E-07                    1_GWF-(1,14799)
        614         13         14  5.01717412E-06                    1_GWF-(1,26544)  2.22597481E-07                    1_GWF-(1,11455)
        615         13         15  6.43803178E-06                    1_GWF-(1,26486) -1.80947421E-07                    1_GWF-(1,11455)
        616         13         16  5.24820473E-06                    1_GWF-(1,26487)  1.10774431E-07                    1_GWF-(1,14798)
        617         13         17  3.56155142E-06                    1_GWF-(1,26420)  2.44761290E-07                    1_GWF-(1,11455)
        618         13         18  3.41422170E-06                    1_GWF-(1,26422) -2.17678648E-07                    1_GWF-(1,15107)
        619         13         19 -3.67757889E-06                    1_GWF-(1,26422)  2.86337252E-07                    1_GWF-(1,15107)
        620         13         20 -3.53943227E-06                    1_GWF-(1,26350) -2.53137070E-07                    1_GWF-(1,15107)
        621         13         21 -3.34429351E-06                    1_GWF-(1,26486) -1.67798298E-07                    1_GWF-(1,11455)
        622         13         22 -2.95366752E-06                    1_GWF-(1,11458)  7.44256224E-08                    1_GWF-(1,15021)
        623         13         23  2.88576113E-06                    1_GWF-(1,11458)  1.72549477E-07                    1_GWF-(1,11455)
        624         13         24 -2.48782515E-06                    1_GWF-(1,26217) -1.76088483E-07                    1_GWF-(1,11455)
        625         13         25  3.02436308E-06                     1_GWF-(1,8332) -1.83541101E-07                    1_GWF-(1,15107)
        626         13         26  3.60655438E-06                     1_GWF-(1,8445)  2.48653512E-07                    1_GWF-(1,15107)
        627         13         27  2.75091693E-06                     1_GWF-(1,8444) -1.35697828E-07                    1_GWF-(1,11455)
        628         13         28  2.73839638E-06                    1_GWF-(1,26665)  7.65116775E-08                    1_GWF-(1,14802)
        629         13         29 -2.82155174E-06                    1_GWF-(1,24429)  1.30753401E-07                    1_GWF-(1,15107)
        630         13         30 -2.88060025E-06                    1_GWF-(1,24960) -2.26441873E-07                    1_GWF-(1,15107)
        631         13         31 -2.94264028E-06                    1_GWF-(1,24750)  3.04243398E-07                    1_GWF-(1,15107)
        632         13         32 -3.00708227E-06                    1_GWF-(1,24756) -2.41313816E-07                    1_GWF-(1,15107)
        633         13         33  3.58027252E-06                    1_GWF-(1,26487)  1.96919429E-07                    1_GWF-(1,15107)
        634         13         34  3.64130446E-06                    1_GWF-(1,26486)  6.21813809E-08                    1_GWF-(1,14802)
        635         13         35 -3.78897417E-06                    1_GWF-(1,26486) -1.71968556E-07                    1_GWF-(1,15107)
        636         13         36 -2.90173764E-06                    1_GWF-(1,26487)  2.68214047E-07                    1_GWF-(1,15107)
        637         13         37 -2.71439792E-06                    1_GWF-(1,21404) -2.40118529E-07                    1_GWF-(1,15107)
        638         13         38 -2.75819718E-06                    1_GWF-(1,26588)  1.63575361E-07                    1_GWF-(1,15107)
        639         13         39 -3.40899841E-06                    1_GWF-(1,26543) -9.50671435E-08                    1_GWF-(1,11455)
        640         13         40 -4.35048916E-06                    1_GWF-(1,26588) -1.77350706E-07                    1_GWF-(1,15107)
        641         13         41 -3.00982393E-06                    1_GWF-(1,26589)  1.95267898E-07                    1_GWF-(1,15107)
        642         13         42 -2.42453938E-06                    1_GWF-(1,26588) -1.47153897E-07                    1_GWF-(1,15107)
        643         13         43 -2.41650747E-06                     1_GWF-(1,8445)  9.43020328E-08                    1_GWF-(1,15107)
        644         13         44 -2.64035718E-06                    1_GWF-(1,26649)  8.79176713E-08                    1_GWF-(1,11455)
        645         13         45  3.67356814E-06                    1_GWF-(1,26649)  6.67290561E-08                    1_GWF-(1,14938)
        646         13         46  3.21864718E-06                    1_GWF-(1,26622)  8.49514691E-08                    1_GWF-(1,15107)
        647         13         47  2.67270342E-06                    1_GWF-(1,26649)  9.74362285E-08                    1_GWF-(1,11455)
        648         13         48  1.96108568E-06                    1_GWF-(1,26622)  8.77881025E-08                    1_GWF-(1,14823)
        649         13         49 -2.05146193E-06                    1_GWF-(1,11380)  7.50485077E-08                    1_GWF-(1,14799)
        650         13         50  2.00263120E-06                    1_GWF-(1,11380)  6.42347012E-08                    1_GWF-(1,11455)
        651         14          1 -1.73064007E-06                    1_GWF-(1,11417) -7.01008861E-08                    1_GWF-(1,11455)
        652         14          2 -1.61693360E-06                    1_GWF-(1,26217)  5.65446585E-08                    1_GWF-(1,14801)
        653         14          3 -1.72241295E-06                    1_GWF-(1,26622)  9.37259106E-08                    1_GWF-(1,11455)
        654         14          4 -2.07197343E-06                    1_GWF-(1,26623) -7.40294744E-08                    1_GWF-(1,11455)
        655         14          5 -2.09041901E-06                    1_GWF-(1,26622)  3.17227602E-08                    1_GWF-(1,14846)
        656         14          6  2.65045189E-06                    1_GWF-(1,26622)  6.52605232E-08                    1_GWF-(1,11455)
        657         14          7  2.74704466E-06                    1_GWF-(1,26649) -2.35763988E-08                    1_GWF-(1,11455)
        658         14          8  1.75291427E-06                    1_GWF-(1,26622)  4.29262792E-08                    1_GWF-(1,14798)
        659         14          9  1.61549363E-06                    1_GWF-(1,20560)  6.03272955E-08                    1_GWF-(1,11455)
        660         14         10  1.62612776E-06                    1_GWF-(1,26543)  3.35941237E-08                    1_GWF-(1,14825)
        661         14         11  2.04089410E-06                    1_GWF-(1,26588) -3.57424802E-08                    1_GWF-(1,11455)
        662         14         12  1.98940428E-06                    1_GWF-(1,26543)  4.99573196E-08                    1_GWF-(1,11455)
        663         14         13  1.92191533E-06                    1_GWF-(1,26588)  2.70490423E-08                    1_GWF-(1,14838)
        664         14         14 -1.62829929E-06                    1_GWF-(1,26588) -4.50595476E-08                    1_GWF-(1,11455)
        665         14         15  1.54630368E-06                    1_GWF-(1,21402)  4.92746668E-08                    1_GWF-(1,11455)
        666         14         16  1.44224869E-06                    1_GWF-(1,24690)  3.85087620E-08                    1_GWF-(1,15107)
        667         14         17  1.50613882E-06                    1_GWF-(1,24689) -4.62670634E-08                    1_GWF-(1,11455)
        668         14         18 -1.62506437E-06                    1_GWF-(1,26487)  3.50685110E-08                    1_GWF-(1,11455)
        669         14         19 -1.28281379E-06                    1_GWF-(1,26420)  3.40752851E-08                    1_GWF-(1,14801)
        670         14         20  1.22318953E-06                    1_GWF-(1,24750) -4.69716177E-08                    1_GWF-(1,11455)
        671         14         21  1.06830145E-06                    1_GWF-(1,26665)  3.13533080E-08                    1_GWF-(1,11455)
        672         14         22 -1.20582435E-06                    1_GWF-(1,26665)  2.96221216E-08                    1_GWF-(1,14799)
        673         14         23 -1.05006730E-06                    1_GWF-(1,26666) -4.57728950E-08                    1_GWF-(1,11455)
        674         14         24 -9.38043527E-07                    1_GWF-(1,26665)  2.68946921E-08                    1_GWF-(1,11455)
        675         15          1  6.89468414E-07                    1_GWF-(1,26665)  2.30817631E-08                    1_GWF-(1,14799)
 --------------------------------------------------------------------------------------------------------------------------------------



 MEMORY MANAGER TOTAL STORAGE BY DATA TYPE, IN MEGABYTES
 -------------------------------
                    ALLOCATED   
 DATA TYPE           MEMORY     
 -------------------------------
 Character        4.66090000E-02
 Logical          4.40000000E-05
 Integer          5.2037920     
 Real             11.901376     
 -------------------------------
 Total            17.151821     
 -------------------------------


 
 Run end date and time (yyyy/mm/dd hh:mm:ss): 2022/05/24 11:58:50
 Elapsed run time:  0.650 Seconds
 Normal termination of simulation.
