                                   MODFLOW 6
                U.S. GEOLOGICAL SURVEY MODULAR HYDROLOGIC MODEL
                          GROUNDWATER FLOW MODEL (GWF)
                            VERSION 6.2.2 07/30/2021

   MODFLOW 6 compiled Jul 31 2021 14:22:53 with IFORT compiler (ver. 19.10.3)

This software has been approved for release by the U.S. Geological 
Survey (USGS). Although the software has been subjected to rigorous 
review, the USGS reserves the right to update the software as needed 
pursuant to further analysis and review. No warranty, expressed or 
implied, is made by the USGS or the U.S. Government as to the 
functionality of the software and related material nor shall the 
fact of release constitute any such warranty. Furthermore, the 
software is released on condition that neither the USGS nor the U.S. 
Government shall be held liable for any damages resulting from its 
authorized or unauthorized use. Also refer to the USGS Water 
Resources Software User Rights Notice for complete use, copyright, 
and distribution information.


System command used to initiate simulation:
mf6

MODFLOW was compiled using uniform precision.

Real Variables
  KIND: 8
  TINY (smallest non-zero value):    2.225074-308
  HUGE (largest value):    1.797693+308
  PRECISION: 15
  BIT SIZE: 64

Integer Variables
  KIND: 4
  HUGE (largest value): 2147483647
  BIT SIZE: 32

Long Integer Variables
  KIND: 8
  HUGE (largest value): 9223372036854775807
  BIT SIZE: 64

Logical Variables
  KIND: 4
  BIT SIZE: 32
 

 OPENED ./ml.disv
 FILE TYPE:DISV6                  UNIT 1005   STATUS:OLD                 
 FORMAT:FORMATTED              ACCESS:SEQUENTIAL          
 ACTION:READ                


 OPENED ./ml.ic
 FILE TYPE:IC6                    UNIT 1006   STATUS:OLD                 
 FORMAT:FORMATTED              ACCESS:SEQUENTIAL          
 ACTION:READ                


 OPENED ./ml.npf
 FILE TYPE:NPF6                   UNIT 1007   STATUS:OLD                 
 FORMAT:FORMATTED              ACCESS:SEQUENTIAL          
 ACTION:READ                


 OPENED ./ml.ghb
 FILE TYPE:GHB6                   UNIT 1008   STATUS:OLD                 
 FORMAT:FORMATTED              ACCESS:SEQUENTIAL          
 ACTION:READ                


 OPENED ./ml.rcha
 FILE TYPE:RCH6                   UNIT 1009   STATUS:OLD                 
 FORMAT:FORMATTED              ACCESS:SEQUENTIAL          
 ACTION:READ                


 OPENED ./ml.obs
 FILE TYPE:OBS6                   UNIT 1010   STATUS:OLD                 
 FORMAT:FORMATTED              ACCESS:SEQUENTIAL          
 ACTION:READ                


 OPENED ./ml.oc
 FILE TYPE:OC6                    UNIT 1011   STATUS:OLD                 
 FORMAT:FORMATTED              ACCESS:SEQUENTIAL          
 ACTION:READ                


 OPENED ml.wel
 FILE TYPE:WEL6                   UNIT 1012   STATUS:OLD                 
 FORMAT:FORMATTED              ACCESS:SEQUENTIAL          
 ACTION:READ                


 OPENED ml.drn
 FILE TYPE:DRN6                   UNIT 1013   STATUS:OLD                 
 FORMAT:FORMATTED              ACCESS:SEQUENTIAL          
 ACTION:READ                


 OPENED ml.riv
 FILE TYPE:RIV6                   UNIT 1014   STATUS:OLD                 
 FORMAT:FORMATTED              ACCESS:SEQUENTIAL          
 ACTION:READ                


 DISV -- VERTEX GRID DISCRETIZATION PACKAGE, VERSION 1 : 12/23/2015 - INPUT READ FROM UNIT 1005


 # File generated by Flopy version 3.3.5 on 04/28/2022 at 15:59:40.

 PROCESSING DISCRETIZATION OPTIONS
    MODEL LENGTH UNIT IS METERS
    XORIGIN SPECIFIED AS     405575.681000000    
    YORIGIN SPECIFIED AS     6423306.54000000    
 END OF DISCRETIZATION OPTIONS

 PROCESSING DISCRETIZATION DIMENSIONS
   NLAY = 1
   NCPL = 26674
   NVERT = 27090
 END OF DISCRETIZATION DIMENSIONS

 PROCESSING GRIDDATA
 END PROCESSING GRIDDATA

 PROCESSING VERTICES
   SUCCESSFULLY READ 27090 (X,Y) COORDINATES
   MINIMUM X COORDINATE =     405575.681000000    
   MAXIMUM X COORDINATE =     413975.681000000    
   MINIMUM Y COORDINATE =     6423306.54000000    
   MAXIMUM Y COORDINATE =     6432506.54000000    
 END PROCESSING VERTICES

 PROCESSING CELL2D
   SUCCESSFULLY READ 26674 CELL2D INFORMATION ENTRIES
   MINIMUM X CELL CENTER =     405675.681000000    
   MAXIMUM X CELL CENTER =     413875.681000000    
   MINIMUM Y CELL CENTER =     6423406.54000000    
   MAXIMUM Y CELL CENTER =     6432406.54000000    
   MAXIMUM NUMBER OF CELL2D VERTICES IS 6 FOR CELL 208
 END PROCESSING VERTICES

 NPF -- NODE PROPERTY FLOW PACKAGE, VERSION 1, 3/30/2015 INPUT READ FROM UNIT 1007


 # File generated by Flopy version 3.3.5 on 04/28/2022 at 15:59:42.
 PROCESSING NPF OPTIONS
    CELL-BY-CELL FLOW INFORMATION WILL BE SAVED TO BINARY FILE WHENEVER ICBCFL IS NOT ZERO.
    SPECIFIC DISCHARGE WILL BE CALCULATED AT CELL CENTERS AND WRITTEN TO DATA-SPDIS IN BUDGET FILE WHEN REQUESTED.
 END OF NPF OPTIONS

 WEL   -- WEL PACKAGE, VERSION 8, 2/22/2014 INPUT READ FROM UNIT 1012
 # File generated by Flopy version 3.3.5 on 04/28/2022 at 15:59:43.

 PROCESSING WEL OPTIONS
    WEL BOUNDARIES HAVE NAMES IN LAST COLUMN.
    FLOWS WILL BE SAVED TO BUDGET FILE SPECIFIED IN OUTPUT CONTROL
 END OF WEL OPTIONS

 PROCESSING WEL DIMENSIONS
    MAXBOUND =       9
 END OF WEL DIMENSIONS

 DRN   -- DRN PACKAGE, VERSION 8, 2/22/2014 INPUT READ FROM UNIT 1013
 # File generated by Flopy version 3.3.5 on 04/28/2022 at 15:59:43.

 PROCESSING DRN OPTIONS
    DRN BOUNDARIES HAVE NAMES IN LAST COLUMN.
    FLOWS WILL BE SAVED TO BUDGET FILE SPECIFIED IN OUTPUT CONTROL

 OPENED ml.drn.obs
 FILE TYPE:OBS   UNIT 1016   STATUS:OLD                 
 FORMAT:FORMATTED              ACCESS:SEQUENTIAL          
 ACTION:READ                

 END OF DRN OPTIONS

 PROCESSING DRN DIMENSIONS
    MAXBOUND =     133
 END OF DRN DIMENSIONS

 RIV   -- RIV PACKAGE, VERSION 8, 2/22/2014 INPUT READ FROM UNIT 1014
 # File generated by Flopy version 3.3.5 on 04/28/2022 at 15:59:43.

 PROCESSING RIV OPTIONS
    AUXILIARY RIV VARIABLE: FID             
    RIV BOUNDARIES HAVE NAMES IN LAST COLUMN.
    FLOWS WILL BE SAVED TO BUDGET FILE SPECIFIED IN OUTPUT CONTROL
 END OF RIV OPTIONS

 PROCESSING RIV DIMENSIONS
    MAXBOUND =     794
 END OF RIV DIMENSIONS

 GHB   -- GHB PACKAGE, VERSION 8, 2/22/2014 INPUT READ FROM UNIT 1008
 # File generated by Flopy version 3.3.5 on 04/28/2022 at 15:59:42.

 PROCESSING GHB OPTIONS
    GHB BOUNDARIES HAVE NAMES IN LAST COLUMN.
    FLOWS WILL BE SAVED TO BUDGET FILE SPECIFIED IN OUTPUT CONTROL
 END OF GHB OPTIONS

 PROCESSING GHB DIMENSIONS
    MAXBOUND =     153
 END OF GHB DIMENSIONS

 RCH   -- RCH PACKAGE, VERSION 8, 2/22/2014 INPUT READ FROM UNIT 1009
 # File generated by Flopy version 3.3.5 on 04/28/2022 at 15:59:42.

 PROCESSING RCH OPTIONS
    RECHARGE INPUT WILL BE READ AS ARRAY(S).
    FLOWS WILL BE SAVED TO BUDGET FILE SPECIFIED IN OUTPUT CONTROL
 END OF RCH OPTIONS

 IC -- INITIAL CONDITIONS PACKAGE, VERSION 8, 3/28/2015 INPUT READ FROM UNIT 1006
 # File generated by Flopy version 3.3.5 on 04/28/2022 at 15:59:42.
 PROCESSING GRIDDATA

     INITIAL HEAD =   15.00000    
 END PROCESSING GRIDDATA
 PROCESSING GRIDDATA

                ICELLTYPE = 0

 OPENED ../com_ext/k.txt
 FILE TYPE:OPEN/CLOSE   UNIT 1017   STATUS:OLD                 
 FORMAT:FORMATTED              ACCESS:SEQUENTIAL          
 ACTION:READ                

 K33 not provided.  Assuming K33 = K.
 K22 not provided.  Assuming K22 = K.
 END PROCESSING GRIDDATA

The observation utility is active for "ML"
 # File generated by Flopy version 3.3.5 on 04/28/2022 at 15:59:43.

Processing observation options:

Text output number of digits of precision set to: 10
The PRINT_INPUT option has been specified.


 OBSERVATIONS READ FROM FILE "ml.obs"
 ----------------------------------------------------------------------------------------------------------------------------------------------------------------------------------------------------------------------------
 NAME                                     TYPE                                       TIME         LOCATION DATA                              OUTPUT FILENAME                                                                 
 ----------------------------------------------------------------------------------------------------------------------------------------------------------------------------------------------------------------------------
 PRG                                      CONTINUOUS  HEAD                           ALL TIMES    "1 16523"                                  sim/hds.csv                                                                     
 P8                                       CONTINUOUS  HEAD                           ALL TIMES    "1 10323"                                  sim/hds.csv                                                                     
 P24                                      CONTINUOUS  HEAD                           ALL TIMES    "1 9594"                                   sim/hds.csv                                                                     
 P25                                      CONTINUOUS  HEAD                           ALL TIMES    "1 13966"                                  sim/hds.csv                                                                     
 P32                                      CONTINUOUS  HEAD                           ALL TIMES    "1 15787"                                  sim/hds.csv                                                                     
 P33                                      CONTINUOUS  HEAD                           ALL TIMES    "1 15825"                                  sim/hds.csv                                                                     
 PF                                       CONTINUOUS  HEAD                           ALL TIMES    "1 21048"                                  sim/hds.csv                                                                     
 PH                                       CONTINUOUS  HEAD                           ALL TIMES    "1 20781"                                  sim/hds.csv                                                                     
 PZHM1                                    CONTINUOUS  HEAD                           ALL TIMES    "1 14521"                                  sim/hds.csv                                                                     
 P26                                      CONTINUOUS  HEAD                           ALL TIMES    "1 13141"                                  sim/hds.csv                                                                     
 P27                                      CONTINUOUS  HEAD                           ALL TIMES    "1 8465"                                   sim/hds.csv                                                                     
 P28                                      CONTINUOUS  HEAD                           ALL TIMES    "1 8924"                                   sim/hds.csv                                                                     
 P29                                      CONTINUOUS  HEAD                           ALL TIMES    "1 4524"                                   sim/hds.csv                                                                     
 P30                                      CONTINUOUS  HEAD                           ALL TIMES    "1 5255"                                   sim/hds.csv                                                                     
 R20                                      CONTINUOUS  HEAD                           ALL TIMES    "1 10676"                                  sim/hds.csv                                                                     
 R21                                      CONTINUOUS  HEAD                           ALL TIMES    "1 10403"                                  sim/hds.csv                                                                     
 P34                                      CONTINUOUS  HEAD                           ALL TIMES    "1 15131"                                  sim/hds.csv                                                                     
 P37                                      CONTINUOUS  HEAD                           ALL TIMES    "1 15755"                                  sim/hds.csv                                                                     
 P38                                      CONTINUOUS  HEAD                           ALL TIMES    "1 15045"                                  sim/hds.csv                                                                     
 P39                                      CONTINUOUS  HEAD                           ALL TIMES    "1 9637"                                   sim/hds.csv                                                                     
 P40                                      CONTINUOUS  HEAD                           ALL TIMES    "1 9312"                                   sim/hds.csv                                                                     
 AP1                                      CONTINUOUS  HEAD                           ALL TIMES    "1 9702"                                   sim/hds.csv                                                                     
 RCK1                                     CONTINUOUS  HEAD                           ALL TIMES    "1 15900"                                  sim/hds.csv                                                                     
 RCK2                                     CONTINUOUS  HEAD                           ALL TIMES    "1 15199"                                  sim/hds.csv                                                                     
 P23                                      CONTINUOUS  HEAD                           ALL TIMES    "1 6409"                                   sim/hds.csv                                                                     
 ----------------------------------------------------------------------------------------------------------------------------------------------------------------------------------------------------------------------------


    BINARY GRID INFORMATION WILL BE WRITTEN TO:
      UNIT NUMBER: 1019
      FILE NAME: /srv/common/ptrack/case_study/pst/ml_10/./ml.disv.grb

 OPENED /srv/common/ptrack/case_study/pst/ml_10/./ml.disv.grb
 FILE TYPE:DATA(BINARY)   UNIT 1019   STATUS:REPLACE             
 FORMAT:UNFORMATTED            ACCESS:STREAM              
 ACTION:READWRITE           

      THE LAST TIME STEP WILL BE PRINTED
      THE LAST TIME STEP WILL BE PRINTED
 # File generated by Flopy version 3.3.5 on 04/28/2022 at 15:59:43.

 PROCESSING OC OPTIONS

    BUDGET INFORMATION WILL BE WRITTEN TO:
      UNIT NUMBER: 1020
      FILE NAME: ml.cbc

 OPENED ml.cbc
 FILE TYPE:DATA(BINARY)   UNIT 1020   STATUS:REPLACE             
 FORMAT:UNFORMATTED            ACCESS:STREAM              
 ACTION:READWRITE           

    HEAD INFORMATION WILL BE WRITTEN TO:
      UNIT NUMBER: 1021
      FILE NAME: ml.hds

 OPENED ml.hds
 FILE TYPE:DATA(BINARY)   UNIT 1021   STATUS:REPLACE             
 FORMAT:UNFORMATTED            ACCESS:STREAM              
 ACTION:READWRITE           

 END OF OC OPTIONS

The observation utility is active for "DRN_0"
 # File generated by Flopy version 3.3.5 on 04/28/2022 at 15:59:43.

Processing observation options:



start timestep kper="1" kstp="1" mode="normal"


 BEGIN READING OUTPUT CONTROL FOR STRESS PERIOD 1
      THE LAST TIME STEP WILL BE SAVED
      THE LAST TIME STEP WILL BE SAVED

 END READING OUTPUT CONTROL FOR STRESS PERIOD 1

 OPENED ext/wel_spd_1.txt
 FILE TYPE:OPEN/CLOSE   UNIT 1023   STATUS:OLD                 
 FORMAT:FORMATTED              ACCESS:SEQUENTIAL          
 ACTION:READ                


 OPENED ext/drn_spd_1.txt
 FILE TYPE:OPEN/CLOSE   UNIT 1024   STATUS:OLD                 
 FORMAT:FORMATTED              ACCESS:SEQUENTIAL          
 ACTION:READ                


 OPENED ext/riv_spd_1.txt
 FILE TYPE:OPEN/CLOSE   UNIT 1025   STATUS:OLD                 
 FORMAT:FORMATTED              ACCESS:SEQUENTIAL          
 ACTION:READ                


 OPENED ../com_ext/ghb_spd_1.txt
 FILE TYPE:OPEN/CLOSE   UNIT 1026   STATUS:OLD                 
 FORMAT:FORMATTED              ACCESS:SEQUENTIAL          
 ACTION:READ                


 OPENED ../com_ext/rech_spd_1.txt
 FILE TYPE:OPEN/CLOSE   UNIT 1027   STATUS:OLD                 
 FORMAT:FORMATTED              ACCESS:SEQUENTIAL          
 ACTION:READ                


 SLN_1 INNER ITERATION SUMMARY
 --------------------------------------------------------------------------------------------------------------------------------------
      TOTAL      OUTER      INNER                                                            MAXIMUM                                   
  ITERATION  ITERATION  ITERATION  MAXIMUM CHANGE      MAXIMUM CHANGE MODEL-(CELLID)        RESIDUAL    MAXIMUM RESIDUAL MODEL-(CELLID)
 --------------------------------------------------------------------------------------------------------------------------------------
          1          1          1      -11.826301                    1_GWF-(1,12785)      0.66548260                    1_GWF-(1,11179)
          2          1          2       7.9455655                    1_GWF-(1,26564)     -0.36517139                    1_GWF-(1,11175)
          3          1          3       8.5839437                    1_GWF-(1,26565)     -0.32920492                    1_GWF-(1,11178)
          4          1          4       8.3168320                    1_GWF-(1,26564)      0.32151222                    1_GWF-(1,11180)
          5          1          5       8.5426101                    1_GWF-(1,26611)      0.29399812                    1_GWF-(1,11157)
          6          1          6       9.1892440                    1_GWF-(1,26649)      0.22745498                    1_GWF-(1,11158)
          7          1          7       9.2794743                    1_GWF-(1,26622)     -0.25781298                    1_GWF-(1,11208)
          8          1          8       7.4105178                    1_GWF-(1,26665)      0.14904897                    1_GWF-(1,10961)
          9          1          9      -5.6859415                    1_GWF-(1,26665)      0.15042163                    1_GWF-(1,11158)
         10          1         10      -5.6588608                    1_GWF-(1,26666)      0.15586602                    1_GWF-(1,11207)
         11          1         11      -5.3074218                    1_GWF-(1,26665)     -0.14563244                    1_GWF-(1,11207)
         12          1         12      -5.0916791                    1_GWF-(1,26622)      0.10885373                    1_GWF-(1,11059)
         13          1         13      -5.9949286                    1_GWF-(1,26649)  9.17524688E-02                    1_GWF-(1,11052)
         14          1         14      -4.8844811                    1_GWF-(1,26622)  8.46128695E-02                    1_GWF-(1,11050)
         15          1         15      -3.8889442                    1_GWF-(1,26623)  8.25877639E-02                    1_GWF-(1,11017)
         16          1         16      -3.0290755                    1_GWF-(1,26622)  8.14923336E-02                    1_GWF-(1,11058)
         17          1         17      -3.5585097                    1_GWF-(1,26588)      0.10945871                    1_GWF-(1,10873)
         18          1         18      -4.6401846                    1_GWF-(1,26543)     -0.10087941                    1_GWF-(1,11152)
         19          1         19      -6.1284737                    1_GWF-(1,26588)  8.48800505E-02                    1_GWF-(1,11194)
         20          1         20      -4.9582817                    1_GWF-(1,26543)  8.75739657E-02                    1_GWF-(1,11151)
         21          1         21      -3.5569467                    1_GWF-(1,26544) -8.14672004E-02                    1_GWF-(1,11152)
         22          1         22      -3.8490602                    1_GWF-(1,26486) -8.86960924E-02                    1_GWF-(1,11151)
         23          1         23      -3.7103620                    1_GWF-(1,26487)  7.58768884E-02                    1_GWF-(1,11151)
         24          1         24       3.4949951                    1_GWF-(1,26487)  6.59777503E-02                    1_GWF-(1,11108)
         25          1         25       4.5951629                    1_GWF-(1,26420) -6.64498180E-02                    1_GWF-(1,11151)
         26          1         26       4.8088242                    1_GWF-(1,26487) -7.88144908E-02                    1_GWF-(1,11108)
         27          1         27       4.0255895                    1_GWF-(1,26420)  6.54652103E-02                    1_GWF-(1,11108)
         28          1         28       2.9188578                    1_GWF-(1,26487) -5.84826647E-02                    1_GWF-(1,11149)
         29          1         29       2.2038434                    1_GWF-(1,26542) -5.65368026E-02                    1_GWF-(1,11150)
         30          1         30       1.8414396                    1_GWF-(1,26623) -5.83403176E-02                    1_GWF-(1,11063)
         31          1         31       1.9798399                    1_GWF-(1,26586)  4.99244663E-02                    1_GWF-(1,11158)
         32          1         32       1.7290857                    1_GWF-(1,26422) -4.76317816E-02                    1_GWF-(1,11053)
         33          1         33      -1.9626575                    1_GWF-(1,26422) -5.10423983E-02                    1_GWF-(1,11155)
         34          1         34      -2.0072909                    1_GWF-(1,26350) -4.50160181E-02                    1_GWF-(1,11154)
         35          1         35      -2.0553371                    1_GWF-(1,26422)  4.83708190E-02                    1_GWF-(1,11154)
         36          1         36      -1.8843078                    1_GWF-(1,26350) -4.89891443E-02                    1_GWF-(1,11153)
         37          1         37      -1.7116003                    1_GWF-(1,26422)  4.84987133E-02                    1_GWF-(1,11064)
         38          1         38      -1.5699182                    1_GWF-(1,26648)  5.61631824E-02                    1_GWF-(1,11063)
         39          1         39      -1.5034614                    1_GWF-(1,26649)  4.30039365E-02                    1_GWF-(1,11150)
         40          1         40      -1.4783701                    1_GWF-(1,26623)  3.27839593E-02                    1_GWF-(1,11110)
         41          1         41      -1.2966397                    1_GWF-(1,26649) -3.39806966E-02                    1_GWF-(1,11150)
         42          1         42      -1.1525582                    1_GWF-(1,26623)  3.84216543E-02                    1_GWF-(1,11150)
         43          1         43     -0.97893707                    1_GWF-(1,21484) -3.96275096E-02                    1_GWF-(1,11151)
         44          1         44     -0.97791162                    1_GWF-(1,21412) -4.16685911E-02                    1_GWF-(1,11108)
         45          1         45      -1.2393408                    1_GWF-(1,21259) -2.98709729E-02                    1_GWF-(1,11061)
         46          1         46      -1.1549881                    1_GWF-(1,20925)  3.30346936E-02                    1_GWF-(1,14801)
         47          1         47      -1.2152639                    1_GWF-(1,20919) -4.34809307E-02                    1_GWF-(1,14801)
         48          1         48     -0.90995729                    1_GWF-(1,20918)  5.52491996E-02                    1_GWF-(1,14801)
         49          1         49     -0.67550449                    1_GWF-(1,26217) -5.85066607E-02                    1_GWF-(1,14801)
         50          1         50     -0.61800601                    1_GWF-(1,26218)  7.80430508E-02                    1_GWF-(1,14801)
         51          2          1      -37.288838                    1_GWF-(1,26519)     -0.16602448                    1_GWF-(1,26519)
         52          2          2      -13.923041                    1_GWF-(1,26607) -6.39182825E-02                    1_GWF-(1,26516)
         53          2          3      -7.2053405                    1_GWF-(1,26637)  4.30456573E-02                    1_GWF-(1,26516)
         54          2          4      -7.0936166                    1_GWF-(1,26665)  4.92337489E-02                    1_GWF-(1,14801)
         55          2          5      -4.6195193                    1_GWF-(1,26649) -4.71445936E-02                    1_GWF-(1,14801)
         56          2          6      -3.5293976                    1_GWF-(1,26589)  6.39530385E-02                    1_GWF-(1,14801)
         57          2          7      -3.0115015                    1_GWF-(1,26543) -7.11416995E-02                    1_GWF-(1,14801)
         58          2          8      -2.6460470                    1_GWF-(1,26544)      0.11093572                    1_GWF-(1,14801)
         59          2          9      -1.9240453                    1_GWF-(1,26487) -9.48066582E-02                    1_GWF-(1,14801)
         60          2         10      -1.5940058                    1_GWF-(1,26421)  8.72009984E-02                    1_GWF-(1,14801)
         61          2         11      -1.4853331                    1_GWF-(1,26422)  1.56239132E-02                    1_GWF-(1,14800)
         62          2         12      -1.1821037                    1_GWF-(1,26217)  3.31414566E-02                    1_GWF-(1,14800)
         63          2         13     -0.90555013                    1_GWF-(1,26218)  6.43123573E-02                    1_GWF-(1,14801)
         64          2         14     -0.57532297                    1_GWF-(1,26649) -6.38169552E-02                    1_GWF-(1,14801)
         65          2         15     -0.62660512                    1_GWF-(1,26622)  5.91277767E-02                    1_GWF-(1,14801)
         66          2         16     -0.81682983                    1_GWF-(1,25775)  1.59298437E-02                    1_GWF-(1,14801)
         67          2         17     -0.88583449                    1_GWF-(1,25758)  6.31546059E-02                    1_GWF-(1,14800)
         68          2         18      0.88519018                    1_GWF-(1,26217)  8.87331575E-02                    1_GWF-(1,14801)
         69          2         19      0.65849991                    1_GWF-(1,26218)  6.59797190E-02                    1_GWF-(1,14800)
         70          2         20      0.47365486                    1_GWF-(1,26543)  5.11926144E-02                    1_GWF-(1,14801)
         71          2         21      0.70588858                    1_GWF-(1,26588)  1.04280320E-02                    1_GWF-(1,14801)
         72          2         22      0.74746564                    1_GWF-(1,26543)  4.65579371E-02                    1_GWF-(1,14800)
         73          2         23      0.45167830                    1_GWF-(1,26544)  8.21062115E-02                    1_GWF-(1,14801)
         74          2         24     -0.50731554                    1_GWF-(1,26422)  7.29569854E-02                    1_GWF-(1,14800)
         75          2         25     -0.70383623                    1_GWF-(1,26486)  6.20827827E-02                    1_GWF-(1,14801)
         76          2         26     -0.75916365                    1_GWF-(1,26487)  1.13730962E-02                    1_GWF-(1,14800)
         77          2         27     -0.50740938                    1_GWF-(1,26420)  3.90967169E-02                    1_GWF-(1,14800)
         78          2         28     -0.27265733                    1_GWF-(1,26543)  6.88312420E-02                    1_GWF-(1,14801)
         79          2         29      0.28518287                    1_GWF-(1,26487)  6.71859719E-02                    1_GWF-(1,14800)
         80          2         30      0.28781622                    1_GWF-(1,26420)  8.92658426E-02                    1_GWF-(1,14801)
         81          2         31      0.23451601                    1_GWF-(1,25268) -8.10065062E-02                    1_GWF-(1,14801)
         82          2         32      0.26263351                    1_GWF-(1,26218)  8.91895968E-02                    1_GWF-(1,14801)
         83          2         33      0.27755912                    1_GWF-(1,26217) -6.13004527E-02                    1_GWF-(1,14801)
         84          2         34     -0.21154101                    1_GWF-(1,26217)  4.87652039E-02                    1_GWF-(1,14801)
         85          2         35      0.19019505                    1_GWF-(1,26422)  3.07715667E-02                    1_GWF-(1,14800)
         86          2         36      0.18823675                    1_GWF-(1,26218)  2.58402391E-02                    1_GWF-(1,14801)
         87          2         37     -0.20623693                    1_GWF-(1,21290)  1.65076644E-02                    1_GWF-(1,14800)
         88          2         38     -0.20874883                    1_GWF-(1,21282)  1.38316499E-02                    1_GWF-(1,14801)
         89          2         39     -0.19455298                    1_GWF-(1,20937)  7.62615704E-03                    1_GWF-(1,14800)
         90          2         40     -0.19082585                    1_GWF-(1,20915)  5.10237544E-03                    1_GWF-(1,14801)
         91          2         41     -0.15265157                    1_GWF-(1,20908)  7.40032734E-03                    1_GWF-(1,14801)
         92          2         42      0.16284487                    1_GWF-(1,21364)  9.49318518E-03                    1_GWF-(1,14800)
         93          2         43     -0.19689203                    1_GWF-(1,26350)  1.28969462E-02                    1_GWF-(1,14801)
         94          2         44      0.21264931                    1_GWF-(1,21283)  1.24087392E-02                    1_GWF-(1,14800)
         95          2         45      0.20300805                    1_GWF-(1,21265)  1.51317373E-02                    1_GWF-(1,14801)
         96          2         46      0.18104783                    1_GWF-(1,20917)  1.16520935E-02                    1_GWF-(1,14800)
         97          2         47      0.13796015                    1_GWF-(1,20232)  1.06524786E-02                    1_GWF-(1,14801)
         98          2         48 -9.58184606E-02                    1_GWF-(1,26422)  6.99036916E-03                    1_GWF-(1,14800)
         99          2         49 -9.02493359E-02                    1_GWF-(1,26586)  6.67608832E-03                    1_GWF-(1,14801)
        100          2         50 -7.56300353E-02                    1_GWF-(1,20584)  4.99176528E-03                    1_GWF-(1,15939)
        101          3          1     -0.11420793                    1_GWF-(1,11442) -5.28488161E-03                    1_GWF-(1,11378)
        102          3          2     -0.12191287                    1_GWF-(1,11437)  5.48115138E-03                    1_GWF-(1,14800)
        103          3          3  7.19140821E-02                    1_GWF-(1,26623)  7.33283987E-03                    1_GWF-(1,14801)
        104          3          4  6.89035444E-02                    1_GWF-(1,26649)  5.82615237E-03                    1_GWF-(1,14800)
        105          3          5 -8.27102394E-02                    1_GWF-(1,21260)  7.43765988E-03                    1_GWF-(1,14801)
        106          3          6 -6.50426460E-02                    1_GWF-(1,26422)  6.78145378E-03                    1_GWF-(1,14800)
        107          3          7 -6.33895918E-02                    1_GWF-(1,26350)  6.48657403E-03                    1_GWF-(1,14801)
        108          3          8 -7.46695481E-02                    1_GWF-(1,26422)  4.90660138E-03                    1_GWF-(1,14800)
        109          3          9 -7.74133424E-02                    1_GWF-(1,26350)  5.49076969E-03                    1_GWF-(1,14801)
        110          3         10  7.47852995E-02                    1_GWF-(1,20224)  3.54591755E-03                    1_GWF-(1,14800)
        111          3         11  6.54623477E-02                    1_GWF-(1,26422)  3.22898700E-03                    1_GWF-(1,15939)
        112          3         12  5.14869323E-02                    1_GWF-(1,26648) -2.60020394E-03                    1_GWF-(1,15939)
        113          3         13  5.09217305E-02                    1_GWF-(1,21332)  1.44287129E-03                    1_GWF-(1,15939)
        114          3         14  4.88518291E-02                    1_GWF-(1,21329)  1.84742328E-03                    1_GWF-(1,14801)
        115          3         15  3.67331779E-02                    1_GWF-(1,20989) -2.75585574E-03                    1_GWF-(1,14801)
        116          3         16 -4.80568080E-02                    1_GWF-(1,26665)  4.04019871E-03                    1_GWF-(1,14801)
        117          3         17 -4.44678779E-02                    1_GWF-(1,26672)  4.56452109E-03                    1_GWF-(1,14800)
        118          3         18 -3.60337685E-02                    1_GWF-(1,26673)  6.69916861E-03                    1_GWF-(1,14801)
        119          3         19  3.09865171E-02                    1_GWF-(1,26180) -7.48359897E-03                    1_GWF-(1,14801)
        120          3         20  4.17467307E-02                    1_GWF-(1,26672)  1.03533654E-02                    1_GWF-(1,14801)
        121          3         21 -3.70393707E-02                    1_GWF-(1,20890) -1.00500349E-02                    1_GWF-(1,14801)
        122          3         22 -3.08664104E-02                    1_GWF-(1,20228)  1.22525562E-02                    1_GWF-(1,14801)
        123          3         23 -3.35684980E-02                    1_GWF-(1,20222) -1.22472490E-02                    1_GWF-(1,14801)
        124          3         24  4.73212751E-02                    1_GWF-(1,26588)  1.08081719E-02                    1_GWF-(1,14801)
        125          3         25  5.70597061E-02                    1_GWF-(1,26487)  3.19903528E-03                    1_GWF-(1,14800)
        126          3         26  5.74828367E-02                    1_GWF-(1,26420)  4.23170116E-03                    1_GWF-(1,14800)
        127          3         27  4.61143555E-02                    1_GWF-(1,26487)  9.34851228E-03                    1_GWF-(1,14801)
        128          3         28  3.07406918E-02                    1_GWF-(1,25268) -1.05468195E-02                    1_GWF-(1,14801)
        129          3         29 -3.54714096E-02                    1_GWF-(1,26486)  8.65543589E-03                    1_GWF-(1,14801)
        130          3         30 -3.56901502E-02                    1_GWF-(1,26622)  2.86624280E-03                    1_GWF-(1,14800)
        131          3         31 -4.21953118E-02                    1_GWF-(1,26649)  2.75727508E-03                    1_GWF-(1,14800)
        132          3         32 -4.43669638E-02                    1_GWF-(1,26622)  7.16794634E-03                    1_GWF-(1,14801)
        133          3         33 -3.35129379E-02                    1_GWF-(1,26649) -7.90786252E-03                    1_GWF-(1,14801)
        134          3         34  3.27194465E-02                    1_GWF-(1,25733)  7.19467980E-03                    1_GWF-(1,14801)
        135          3         35 -3.50998821E-02                    1_GWF-(1,26665)  2.48446364E-03                    1_GWF-(1,14800)
        136          3         36  4.10813368E-02                    1_GWF-(1,26665) -7.82492793E-04                    1_GWF-(1,15942)
        137          3         37  3.67403383E-02                    1_GWF-(1,26666)  2.82351464E-03                    1_GWF-(1,14801)
        138          3         38  2.86688688E-02                    1_GWF-(1,26674) -3.80541739E-03                    1_GWF-(1,14801)
        139          3         39  2.08667772E-02                    1_GWF-(1,26350)  3.60352143E-03                    1_GWF-(1,14801)
        140          3         40  2.35623478E-02                    1_GWF-(1,26421) -2.94840607E-03                    1_GWF-(1,14801)
        141          3         41  2.50039522E-02                    1_GWF-(1,26486) -1.24125922E-03                    1_GWF-(1,14800)
        142          3         42  2.82295739E-02                    1_GWF-(1,26544) -5.18624494E-04                    1_GWF-(1,14800)
        143          3         43  3.01856063E-02                    1_GWF-(1,26543) -2.07685466E-03                    1_GWF-(1,14801)
        144          3         44  3.14701757E-02                    1_GWF-(1,26588) -2.02707608E-03                    1_GWF-(1,14800)
        145          3         45  2.28682819E-02                    1_GWF-(1,26622) -2.07005872E-03                    1_GWF-(1,14801)
        146          3         46  2.22399454E-02                    1_GWF-(1,26649) -1.41623257E-03                    1_GWF-(1,14800)
        147          3         47 -1.72433515E-02                    1_GWF-(1,26138)  1.31802139E-03                    1_GWF-(1,15939)
        148          3         48 -1.85043610E-02                    1_GWF-(1,26543) -8.33380059E-04                    1_GWF-(1,15939)
        149          3         49 -1.96855733E-02                    1_GWF-(1,26649)  6.41128991E-04                    1_GWF-(1,15939)
        150          3         50 -1.64774359E-02                    1_GWF-(1,26665)  4.51452839E-04                    1_GWF-(1,15854)
        151          4          1 -6.13995816E-02                    1_GWF-(1,11426)  4.38102554E-04                    1_GWF-(1,10745)
        152          4          2 -2.97231173E-02                    1_GWF-(1,11421) -4.26996237E-04                    1_GWF-(1,10745)
        153          4          3 -1.78412931E-02                    1_GWF-(1,11422)  2.85181578E-04                    1_GWF-(1,15939)
        154          4          4 -1.39043826E-02                    1_GWF-(1,11410) -2.68029451E-04                    1_GWF-(1,14800)
        155          4          5 -9.07064411E-03                    1_GWF-(1,11405) -4.08400597E-04                    1_GWF-(1,14801)
        156          4          6 -6.76215271E-03                    1_GWF-(1,11453) -4.76527363E-04                    1_GWF-(1,14800)
        157          4          7 -5.78329579E-03                    1_GWF-(1,26217) -6.72095590E-04                    1_GWF-(1,14801)
        158          4          8 -6.33454714E-03                    1_GWF-(1,26218)  6.06464518E-04                    1_GWF-(1,14801)
        159          4          9  7.38706583E-03                    1_GWF-(1,11455)  4.42744243E-04                    1_GWF-(1,14800)
        160          4         10 -5.70717752E-03                    1_GWF-(1,26486)  2.03112502E-04                    1_GWF-(1,14801)
        161          4         11  5.47975235E-03                    1_GWF-(1,26486)  5.73610304E-04                    1_GWF-(1,14801)
        162          4         12 -6.39572919E-03                    1_GWF-(1,11466)  6.36119255E-04                    1_GWF-(1,14800)
        163          4         13  4.77037084E-03                    1_GWF-(1,26217)  6.83902514E-04                    1_GWF-(1,14801)
        164          4         14  4.47534688E-03                    1_GWF-(1,11466) -6.96736808E-04                    1_GWF-(1,14801)
        165          4         15 -4.36288570E-03                    1_GWF-(1,26665) -4.50330710E-04                    1_GWF-(1,14800)
        166          4         16  6.08004710E-03                    1_GWF-(1,26665)  2.49677137E-04                    1_GWF-(1,14800)
        167          4         17 -5.11833987E-03                    1_GWF-(1,26665)  2.39874307E-04                    1_GWF-(1,14799)
        168          4         18  5.13030943E-03                    1_GWF-(1,26665)  5.10776646E-04                    1_GWF-(1,14801)
        169          4         19 -4.31747708E-03                    1_GWF-(1,20737)  5.93295695E-04                    1_GWF-(1,14800)
        170          4         20 -3.74317718E-03                    1_GWF-(1,20727)  7.49703519E-04                    1_GWF-(1,14801)
        171          4         21 -4.37311194E-03                    1_GWF-(1,26649)  4.57450580E-04                    1_GWF-(1,14800)
        172          4         22 -5.00664613E-03                    1_GWF-(1,26622)  2.11056688E-04                    1_GWF-(1,14799)
        173          4         23 -3.74095355E-03                    1_GWF-(1,26649)  4.04638263E-04                    1_GWF-(1,14801)
        174          4         24 -3.73990685E-03                    1_GWF-(1,26487)  5.81377269E-04                    1_GWF-(1,14800)
        175          4         25 -3.75557364E-03                    1_GWF-(1,26486)  7.34376845E-04                    1_GWF-(1,14801)
        176          4         26 -4.09342411E-03                    1_GWF-(1,26487)  4.77577094E-04                    1_GWF-(1,14800)
        177          4         27 -4.05118802E-03                    1_GWF-(1,26588)  1.93631442E-04                    1_GWF-(1,14801)
        178          4         28 -3.17715059E-03                    1_GWF-(1,26487)  3.34123831E-04                    1_GWF-(1,14801)
        179          4         29 -2.15457156E-03                    1_GWF-(1,26420) -5.28398550E-04                    1_GWF-(1,14801)
        180          4         30 -1.56710058E-03                    1_GWF-(1,21489)  8.14121497E-04                    1_GWF-(1,14801)
        181          4         31 -1.60633443E-03                    1_GWF-(1,23180) -8.39122814E-04                    1_GWF-(1,14801)
        182          4         32 -1.47395642E-03                    1_GWF-(1,23020)  9.20446961E-04                    1_GWF-(1,14801)
        183          4         33  1.54187672E-03                    1_GWF-(1,26422) -6.56606689E-04                    1_GWF-(1,14801)
        184          4         34  1.49052208E-03                    1_GWF-(1,26350)  4.74383899E-04                    1_GWF-(1,14801)
        185          4         35  1.51059000E-03                    1_GWF-(1,26422) -3.49450826E-04                    1_GWF-(1,14801)
        186          4         36  1.33591501E-03                    1_GWF-(1,26218)  3.05311447E-04                    1_GWF-(1,14801)
        187          4         37 -1.01112856E-03                    1_GWF-(1,20988)  1.60013659E-04                    1_GWF-(1,14800)
        188          4         38 -9.43656275E-04                    1_GWF-(1,20996)  1.52845802E-04                    1_GWF-(1,14801)
        189          4         39  8.38446650E-04                    1_GWF-(1,20234)  1.20920098E-04                    1_GWF-(1,14800)
        190          4         40  7.87841184E-04                    1_GWF-(1,21260) -9.36542127E-05                    1_GWF-(1,15939)
        191          4         41 -9.09170905E-04                    1_GWF-(1,26350)  8.08001061E-05                    1_GWF-(1,15939)
        192          4         42 -1.02871232E-03                    1_GWF-(1,26422) -1.00318323E-04                    1_GWF-(1,15939)
        193          4         43 -1.05051130E-03                    1_GWF-(1,26350)  6.96169505E-05                    1_GWF-(1,15939)
        194          4         44 -1.15556159E-03                    1_GWF-(1,26422)  7.40249351E-05                    1_GWF-(1,14799)
        195          4         45 -1.16597567E-03                    1_GWF-(1,26350)  9.35272359E-05                    1_GWF-(1,14801)
        196          4         46 -1.35338119E-03                    1_GWF-(1,26422)  1.06007746E-04                    1_GWF-(1,14800)
        197          4         47 -1.26834640E-03                    1_GWF-(1,26350)  1.00541732E-04                    1_GWF-(1,14801)
        198          4         48 -1.01110523E-03                    1_GWF-(1,26422)  7.61042085E-05                    1_GWF-(1,14800)
        199          4         49  1.04708627E-03                    1_GWF-(1,26422)  1.03831282E-04                    1_GWF-(1,14801)
        200          4         50  8.70246824E-04                    1_GWF-(1,26350)  6.64093556E-05                    1_GWF-(1,14800)
        201          5          1 -5.13741783E-03                    1_GWF-(1,11373)  4.68699306E-05                    1_GWF-(1,14801)
        202          5          2 -1.33211966E-03                    1_GWF-(1,11934)  6.08388575E-05                    1_GWF-(1,14800)
        203          5          3  9.27282935E-04                    1_GWF-(1,11373)  8.42310977E-05                    1_GWF-(1,14801)
        204          5          4 -9.55258878E-04                    1_GWF-(1,11373)  6.98989839E-05                    1_GWF-(1,14800)
        205          5          5  9.75246843E-04                    1_GWF-(1,26422)  8.40180264E-05                    1_GWF-(1,14801)
        206          5          6  8.81142497E-04                    1_GWF-(1,26350)  6.17922176E-05                    1_GWF-(1,14800)
        207          5          7  8.35620337E-04                    1_GWF-(1,26422)  5.85865780E-05                    1_GWF-(1,14801)
        208          5          8  6.98890668E-04                    1_GWF-(1,26350) -3.96760150E-05                    1_GWF-(1,15939)
        209          5          9  6.48337868E-04                    1_GWF-(1,26422)  4.89051829E-05                    1_GWF-(1,15939)
        210          5         10 -6.03213797E-04                    1_GWF-(1,11373) -4.69380741E-05                    1_GWF-(1,15939)
        211          5         11 -6.37312435E-04                    1_GWF-(1,26622)  2.98632903E-05                    1_GWF-(1,14800)
        212          5         12  7.12576420E-04                    1_GWF-(1,26622)  3.50721634E-05                    1_GWF-(1,14801)
        213          5         13 -7.10433391E-04                    1_GWF-(1,26486) -4.12114802E-05                    1_GWF-(1,15939)
        214          5         14 -4.64620118E-04                    1_GWF-(1,26544)  5.30936813E-05                    1_GWF-(1,15939)
        215          5         15 -4.89431554E-04                    1_GWF-(1,26486) -4.23452426E-05                    1_GWF-(1,15939)
        216          5         16 -4.43303868E-04                    1_GWF-(1,26350)  3.73806478E-05                    1_GWF-(1,14800)
        217          5         17 -4.11343329E-04                    1_GWF-(1,26486)  4.80711308E-05                    1_GWF-(1,14801)
        218          5         18 -3.64439018E-04                    1_GWF-(1,26487)  5.56060755E-05                    1_GWF-(1,14800)
        219          5         19 -3.95297747E-04                    1_GWF-(1,26486)  8.74561735E-05                    1_GWF-(1,14801)
        220          5         20  4.63857759E-04                    1_GWF-(1,26486)  6.99202153E-05                    1_GWF-(1,14800)
        221          5         21  6.93452123E-04                    1_GWF-(1,26487)  4.42905730E-05                    1_GWF-(1,14801)
        222          5         22  6.23115773E-04                    1_GWF-(1,26486)  2.78701298E-05                    1_GWF-(1,14801)
        223          5         23 -4.60825450E-04                     1_GWF-(1,3439)  6.29815571E-05                    1_GWF-(1,14800)
        224          5         24 -5.35369329E-04                     1_GWF-(1,8061)  1.00505591E-04                    1_GWF-(1,14801)
        225          5         25 -4.90803000E-04                     1_GWF-(1,8083) -1.07427814E-04                    1_GWF-(1,14801)
        226          5         26 -3.91974318E-04                     1_GWF-(1,7981)  1.40605351E-04                    1_GWF-(1,14801)
        227          5         27 -3.70040326E-04                     1_GWF-(1,8188) -1.31673992E-04                    1_GWF-(1,14801)
        228          5         28  4.03575867E-04                     1_GWF-(1,8050)  1.40714066E-04                    1_GWF-(1,14801)
        229          5         29  4.71163472E-04                     1_GWF-(1,8058) -1.14235803E-04                    1_GWF-(1,14801)
        230          5         30  4.30374965E-04                     1_GWF-(1,8084)  9.88469250E-05                    1_GWF-(1,14801)
        231          5         31  4.18776295E-04                     1_GWF-(1,8093) -4.95427210E-05                    1_GWF-(1,14801)
        232          5         32  3.53228341E-04                    1_GWF-(1,26665) -1.72539400E-05                    1_GWF-(1,15939)
        233          5         33 -3.77525779E-04                    1_GWF-(1,26665)  4.96397979E-05                    1_GWF-(1,14801)
        234          5         34 -3.39527368E-04                    1_GWF-(1,26588) -6.77223850E-05                    1_GWF-(1,14801)
        235          5         35 -2.42480235E-04                     1_GWF-(1,8014)  6.11020313E-05                    1_GWF-(1,14801)
        236          5         36 -2.63354808E-04                     1_GWF-(1,8023) -5.50303938E-05                    1_GWF-(1,14801)
        237          5         37 -2.82811588E-04                     1_GWF-(1,8211) -2.96407285E-05                    1_GWF-(1,14800)
        238          5         38 -2.19110376E-04                     1_GWF-(1,8219)  1.19575604E-05                    1_GWF-(1,14799)
        239          5         39  1.89931092E-04                    1_GWF-(1,26588)  1.64078498E-05                    1_GWF-(1,14800)
        240          5         40 -1.86120352E-04                    1_GWF-(1,26665)  3.70171209E-05                    1_GWF-(1,14801)
        241          5         41  1.79026841E-04                     1_GWF-(1,8041) -3.62098148E-05                    1_GWF-(1,14801)
        242          5         42  2.37061952E-04                     1_GWF-(1,8221)  3.54902113E-05                    1_GWF-(1,14801)
        243          5         43  2.50550495E-04                     1_GWF-(1,8446) -2.56801400E-05                    1_GWF-(1,14801)
        244          5         44  1.95248372E-04                     1_GWF-(1,8365)  1.71249016E-05                    1_GWF-(1,14801)
        245          5         45  1.69827094E-04                     1_GWF-(1,8085) -1.34059513E-05                    1_GWF-(1,14801)
        246          5         46 -1.49358161E-04                     1_GWF-(1,8223) -1.00628900E-05                    1_GWF-(1,14799)
        247          5         47 -1.40395808E-04                     1_GWF-(1,8448)  9.28436562E-06                    1_GWF-(1,14799)
        248          5         48 -1.41064393E-04                     1_GWF-(1,8478) -1.08824884E-05                    1_GWF-(1,14799)
        249          5         49 -1.35774598E-04                     1_GWF-(1,8094)  1.01757097E-05                    1_GWF-(1,14799)
        250          5         50 -1.36781293E-04                     1_GWF-(1,8079) -1.66800001E-05                    1_GWF-(1,14799)
        251          6          1 -1.48071442E-04                    1_GWF-(1,11426)  1.28306772E-05                    1_GWF-(1,14799)
        252          6          2 -1.47616532E-04                    1_GWF-(1,11421) -1.38135403E-05                    1_GWF-(1,14799)
        253          6          3 -9.42932446E-05                    1_GWF-(1,11400)  1.11543140E-05                    1_GWF-(1,14799)
        254          6          4 -1.00242715E-04                    1_GWF-(1,26622) -7.85931115E-06                    1_GWF-(1,14799)
        255          6          5 -9.75646802E-05                    1_GWF-(1,26588) -3.09800467E-06                    1_GWF-(1,14799)
        256          6          6 -8.71871584E-05                    1_GWF-(1,26543)  9.67370306E-06                    1_GWF-(1,14799)
        257          6          7 -7.42796566E-05                    1_GWF-(1,21265) -1.40400712E-05                    1_GWF-(1,14799)
        258          6          8 -9.35998112E-05                     1_GWF-(1,8445)  1.34356376E-05                    1_GWF-(1,14799)
        259          6          9 -9.25453654E-05                     1_GWF-(1,8446) -1.40494029E-05                    1_GWF-(1,14799)
        260          6         10 -6.66816360E-05                    1_GWF-(1,24822)  1.48595898E-05                    1_GWF-(1,14799)
        261          6         11 -5.96272577E-05                     1_GWF-(1,8188) -9.34909804E-06                    1_GWF-(1,14799)
        262          6         12  5.13500126E-05                    1_GWF-(1,26218)  8.47445989E-06                    1_GWF-(1,14799)
        263          6         13 -5.12952774E-05                     1_GWF-(1,7972) -7.54948300E-06                    1_GWF-(1,14800)
        264          6         14  5.50651707E-05                     1_GWF-(1,8213) -9.01841623E-06                    1_GWF-(1,14801)
        265          6         15 -6.20023532E-05                    1_GWF-(1,26665)  4.12378662E-06                    1_GWF-(1,14801)
        266          6         16  5.99922734E-05                    1_GWF-(1,26665) -3.66066847E-06                    1_GWF-(1,14799)
        267          6         17 -5.59257460E-05                    1_GWF-(1,21291)  6.43230053E-06                    1_GWF-(1,14799)
        268          6         18 -5.25373426E-05                    1_GWF-(1,20737)  8.33725314E-06                    1_GWF-(1,14801)
        269          6         19  5.82101581E-05                    1_GWF-(1,26622)  7.33150743E-06                    1_GWF-(1,14800)
        270          6         20 -5.77494225E-05                    1_GWF-(1,26622)  4.87465923E-06                    1_GWF-(1,14801)
        271          6         21  4.42548517E-05                    1_GWF-(1,26622)  3.13863512E-06                    1_GWF-(1,14798)
        272          6         22 -4.10974313E-05                    1_GWF-(1,26622) -5.56795217E-06                    1_GWF-(1,14801)
        273          6         23 -4.02452722E-05                    1_GWF-(1,26543)  8.89042248E-06                    1_GWF-(1,14801)
        274          6         24 -3.76491524E-05                    1_GWF-(1,26588) -1.01111396E-05                    1_GWF-(1,14801)
        275          6         25 -3.83582331E-05                    1_GWF-(1,26543)  1.20485141E-05                    1_GWF-(1,14801)
        276          6         26 -3.81019202E-05                    1_GWF-(1,26588) -8.95022072E-06                    1_GWF-(1,14801)
        277          6         27  3.05849833E-05                     1_GWF-(1,8086)  3.72308360E-06                    1_GWF-(1,14801)
        278          6         28 -2.82275029E-05                    1_GWF-(1,26588)  3.07341492E-06                    1_GWF-(1,14801)
        279          6         29  2.80629863E-05                    1_GWF-(1,26588) -7.37428449E-06                    1_GWF-(1,14801)
        280          6         30  2.56630590E-05                    1_GWF-(1,26665)  1.05300775E-05                    1_GWF-(1,14801)
        281          6         31  1.74330600E-05                    1_GWF-(1,26588) -9.03256816E-06                    1_GWF-(1,14801)
        282          6         32 -1.41484479E-05                     1_GWF-(1,8197)  8.28881792E-06                    1_GWF-(1,14801)
        283          6         33 -1.24079469E-05                    1_GWF-(1,23817) -5.65913789E-06                    1_GWF-(1,14801)
        284          6         34  1.27308224E-05                     1_GWF-(1,3024)  4.51795692E-06                    1_GWF-(1,14801)
        285          6         35  1.32811435E-05                     1_GWF-(1,3033)  3.13361511E-06                    1_GWF-(1,14800)
        286          6         36 -1.30764270E-05                    1_GWF-(1,21080)  2.89654806E-06                    1_GWF-(1,14799)
        287          6         37 -1.23036989E-05                    1_GWF-(1,20993)  2.16316720E-06                    1_GWF-(1,14798)
        288          6         38 -1.06262821E-05                    1_GWF-(1,20999)  2.88994647E-06                    1_GWF-(1,14799)
        289          6         39  1.25072354E-05                     1_GWF-(1,8075)  2.29246034E-06                    1_GWF-(1,14798)
        290          6         40  1.50502803E-05                     1_GWF-(1,8055)  3.20431362E-06                    1_GWF-(1,14799)
        291          6         41  1.49259046E-05                    1_GWF-(1,26649) -1.53598145E-06                    1_GWF-(1,14799)
        292          6         42  1.47001025E-05                    1_GWF-(1,26622)  7.70638474E-07                    1_GWF-(1,14800)
        293          6         43  1.42714666E-05                    1_GWF-(1,26623)  2.11611603E-06                    1_GWF-(1,14799)
        294          6         44 -1.38489665E-05                    1_GWF-(1,26623)  1.87683369E-06                    1_GWF-(1,14798)
        295          6         45 -1.32257624E-05                    1_GWF-(1,20180)  2.30256698E-06                    1_GWF-(1,14799)
        296          6         46 -1.36837023E-05                    1_GWF-(1,20185)  1.57921619E-06                    1_GWF-(1,14798)
        297          6         47 -1.03210992E-05                    1_GWF-(1,20190)  1.62773816E-06                    1_GWF-(1,14799)
        298          6         48  1.08476403E-05                    1_GWF-(1,26422)  9.23382185E-07                    1_GWF-(1,14801)
        299          6         49  1.01960062E-05                    1_GWF-(1,26350)  9.42586845E-07                    1_GWF-(1,14800)
        300          6         50  1.12715434E-05                    1_GWF-(1,26486)  1.43841879E-06                    1_GWF-(1,14801)
        301          7          1 -1.11947059E-05                    1_GWF-(1,26422)  1.08318273E-06                    1_GWF-(1,14800)
        302          7          2  1.03116771E-05                    1_GWF-(1,26486)  1.01634261E-06                    1_GWF-(1,14801)
        303          7          3  9.22211342E-06                    1_GWF-(1,26544)  5.66766099E-07                    1_GWF-(1,14800)
        304          7          4  1.18501839E-05                    1_GWF-(1,26486)  4.09682352E-07                    1_GWF-(1,14801)
        305          7          5  1.12587340E-05                    1_GWF-(1,26487) -5.56756769E-07                    1_GWF-(1,15939)
        306          7          6  1.13565637E-05                    1_GWF-(1,26420)  5.78089051E-07                    1_GWF-(1,14800)
        307          7          7  9.81304314E-06                    1_GWF-(1,26422)  6.94793625E-07                    1_GWF-(1,14801)
        308          7          8  9.78283471E-06                    1_GWF-(1,26350)  5.71218228E-07                    1_GWF-(1,14800)
        309          7          9  9.21729902E-06                    1_GWF-(1,26422)  5.19478514E-07                    1_GWF-(1,15939)
        310          7         10 -9.05035004E-06                     1_GWF-(1,8053)  7.24496948E-07                    1_GWF-(1,14799)
        311          7         11 -8.64138076E-06                     1_GWF-(1,8051)  8.34801683E-07                    1_GWF-(1,15939)
        312          7         12 -7.37050643E-06                     1_GWF-(1,8080)  6.32557919E-07                    1_GWF-(1,14801)
        313          7         13  8.48256245E-06                    1_GWF-(1,26649)  4.78476010E-07                    1_GWF-(1,14800)
        314          7         14 -8.52082597E-06                    1_GWF-(1,26487)  3.98974084E-07                    1_GWF-(1,14798)
        315          7         15 -7.86199947E-06                    1_GWF-(1,26486)  4.90655516E-07                    1_GWF-(1,14799)
        316          7         16  6.01027315E-06                    1_GWF-(1,26622)  5.46910126E-07                    1_GWF-(1,15939)
        317          7         17 -5.72401606E-06                    1_GWF-(1,26586)  4.94013557E-07                    1_GWF-(1,14801)
        318          7         18 -9.14672678E-06                    1_GWF-(1,26588)  4.45130607E-07                    1_GWF-(1,14800)
        319          7         19 -8.33479132E-06                    1_GWF-(1,26543)  4.14395244E-07                    1_GWF-(1,14801)
        320          7         20 -9.04331337E-06                    1_GWF-(1,26588) -4.61156422E-07                    1_GWF-(1,15939)
        321          7         21  7.04744724E-06                    1_GWF-(1,26588)  5.23929882E-07                    1_GWF-(1,15939)
        322          7         22  4.97638500E-06                    1_GWF-(1,26543)  8.34605103E-07                    1_GWF-(1,14801)
        323          7         23  4.50771573E-06                    1_GWF-(1,26588)  8.74112848E-07                    1_GWF-(1,14800)
        324          7         24 -6.44640617E-06                     1_GWF-(1,8098)  1.13506927E-06                    1_GWF-(1,14801)
        325          7         25 -5.93814000E-06                     1_GWF-(1,8086) -1.05328746E-06                    1_GWF-(1,14801)
        326          7         26  5.36484677E-06                    1_GWF-(1,26666)  9.43270696E-07                    1_GWF-(1,14801)
        327          7         27  5.70652304E-06                    1_GWF-(1,26665)  2.99031273E-07                    1_GWF-(1,14800)
        328          7         28 -4.24941687E-06                    1_GWF-(1,26665) -3.42444763E-07                    1_GWF-(1,14801)
        329          7         29  5.12944462E-06                     1_GWF-(1,7955)  8.65965763E-07                    1_GWF-(1,14801)
        330          7         30  3.74360588E-06                     1_GWF-(1,7972)  1.04161627E-06                    1_GWF-(1,14800)
        331          7         31  3.42629148E-06                     1_GWF-(1,8021)  1.48480787E-06                    1_GWF-(1,14801)
        332          7         32 -3.44657188E-06                     1_GWF-(1,7947) -1.51486965E-06                    1_GWF-(1,14801)
        333          7         33 -3.38573652E-06                     1_GWF-(1,7955)  1.49856705E-06                    1_GWF-(1,14801)
        334          7         34 -3.40607130E-06                     1_GWF-(1,8085) -1.18102558E-06                    1_GWF-(1,14801)
        335          7         35  3.02407289E-06                     1_GWF-(1,3434)  9.02954082E-07                    1_GWF-(1,14801)
        336          7         36  3.55667507E-06                     1_GWF-(1,7948) -7.17055392E-07                    1_GWF-(1,14801)
        337          7         37  3.48596776E-06                     1_GWF-(1,7972) -3.02118789E-07                    1_GWF-(1,14799)
        338          7         38  3.88905665E-06                     1_GWF-(1,7977)  3.61702233E-07                    1_GWF-(1,14801)
        339          7         39  3.49000415E-06                     1_GWF-(1,8011) -5.47236728E-07                    1_GWF-(1,14801)
        340          7         40  3.46631426E-06                     1_GWF-(1,8188)  6.43540226E-07                    1_GWF-(1,14801)
        341          7         41  3.02223663E-06                     1_GWF-(1,8212) -4.82478006E-07                    1_GWF-(1,14801)
        342          7         42  3.14358667E-06                     1_GWF-(1,8442) -4.16647724E-07                    1_GWF-(1,14799)
        343          7         43  2.91677041E-06                     1_GWF-(1,8448)  3.43555503E-07                    1_GWF-(1,14799)
        344          7         44  2.55327062E-06                    1_GWF-(1,26649) -1.86531273E-07                    1_GWF-(1,14799)
        345          7         45  3.21860593E-06                    1_GWF-(1,26622)  1.44344336E-07                    1_GWF-(1,14801)
        346          7         46  2.82663424E-06                    1_GWF-(1,26649)  2.32099234E-07                    1_GWF-(1,14799)
        347          7         47  2.11812812E-06                    1_GWF-(1,26622) -3.14122959E-07                    1_GWF-(1,14799)
        348          7         48 -1.79125230E-06                     1_GWF-(1,8093)  3.13773182E-07                    1_GWF-(1,14799)
        349          7         49 -1.66724284E-06                     1_GWF-(1,8093) -3.05798211E-07                    1_GWF-(1,14799)
        350          7         50  1.49065101E-06                    1_GWF-(1,11421)  2.35870628E-07                    1_GWF-(1,14799)
        351          8          1 -1.25335986E-06                    1_GWF-(1,11421) -3.63944289E-07                    1_GWF-(1,14799)
        352          8          2 -1.61966654E-06                    1_GWF-(1,11426)  2.03609758E-07                    1_GWF-(1,14799)
        353          8          3 -1.63890330E-06                    1_GWF-(1,26588) -1.20910452E-07                    1_GWF-(1,14799)
        354          8          4 -1.57302213E-06                    1_GWF-(1,26543) -3.40278803E-08                    1_GWF-(1,14799)
        355          8          5 -1.86874458E-06                    1_GWF-(1,26588)  1.48395395E-07                    1_GWF-(1,14799)
        356          8          6 -1.30990563E-06                    1_GWF-(1,26543) -2.05317863E-07                    1_GWF-(1,14799)
        357          8          7 -1.01294625E-06                    1_GWF-(1,21271)  1.93087072E-07                    1_GWF-(1,14799)
        358          8          8  1.37628194E-06                    1_GWF-(1,26649) -1.86197592E-07                    1_GWF-(1,14799)
        359          8          9  1.61040277E-06                    1_GWF-(1,26622)  8.83764682E-08                    1_GWF-(1,14799)
        360          8         10  1.46450153E-06                    1_GWF-(1,26649)  9.54321041E-08                    1_GWF-(1,14799)
        361          8         11 -1.08726265E-06                     1_GWF-(1,8188) -1.41560061E-07                    1_GWF-(1,14799)
        362          8         12 -9.70910873E-07                     1_GWF-(1,8011)  1.86447656E-07                    1_GWF-(1,14799)
        363          9          1 -4.22155097E-07                    1_GWF-(1,26674) -1.57164731E-07                    1_GWF-(1,14799)
 --------------------------------------------------------------------------------------------------------------------------------------


 UBDSV1 SAVING     FLOW-JA-FACE ON UNIT   1020 AT TIME STEP      1, STRESS PERIOD      1
 UBDSV06 SAVING       DATA-SPDIS IN MODEL ML               PACKAGE NPF             CONNECTED TO MODEL ML               PACKAGE NPF              ON UNIT   1020 AT TIME STEP      1, STRESS PERIOD      1
 UBDSV06 SAVING              WEL IN MODEL ML               PACKAGE ML              CONNECTED TO MODEL ML               PACKAGE WEL_0            ON UNIT   1020 AT TIME STEP      1, STRESS PERIOD      1
 UBDSV06 SAVING              DRN IN MODEL ML               PACKAGE ML              CONNECTED TO MODEL ML               PACKAGE DRN_0            ON UNIT   1020 AT TIME STEP      1, STRESS PERIOD      1
 UBDSV06 SAVING              RIV IN MODEL ML               PACKAGE ML              CONNECTED TO MODEL ML               PACKAGE RIV_0            ON UNIT   1020 AT TIME STEP      1, STRESS PERIOD      1
 UBDSV06 SAVING              GHB IN MODEL ML               PACKAGE ML              CONNECTED TO MODEL ML               PACKAGE GHB_0            ON UNIT   1020 AT TIME STEP      1, STRESS PERIOD      1
 UBDSV06 SAVING              RCH IN MODEL ML               PACKAGE ML              CONNECTED TO MODEL ML               PACKAGE RCHA_0           ON UNIT   1020 AT TIME STEP      1, STRESS PERIOD      1

 HEAD WILL BE SAVED ON UNIT 1021 AT END OF TIME STEP    1, STRESS PERIOD    1


  VOLUME BUDGET FOR ENTIRE MODEL AT END OF TIME STEP    1, STRESS PERIOD   1
  ---------------------------------------------------------------------------------------------------

     CUMULATIVE VOLUME      L**3       RATES FOR THIS TIME STEP      L**3/T          PACKAGE NAME    
     ------------------                 ------------------------                     ----------------

           IN:                                      IN:
           ---                                      ---
                 WEL =           0.0000                   WEL =           0.0000     WEL_0           
                 DRN =           0.0000                   DRN =           0.0000     DRN_0           
                 RIV =           9.3726                   RIV =           0.9373     RIV_0           
                 GHB =          19.0205                   GHB =           1.9020     GHB_0           
                 RCH =           1.5882                   RCH =           0.1588     RCHA_0          

            TOTAL IN =          29.9812              TOTAL IN =           2.9981

          OUT:                                     OUT:
          ----                                     ----
                 WEL =           0.8421                   WEL =       8.4206E-02     WEL_0           
                 DRN =           2.3259                   DRN =           0.2326     DRN_0           
                 RIV =          26.7766                   RIV =           2.6777     RIV_0           
                 GHB =       3.6678E-02                   GHB =       3.6678E-03     GHB_0           
                 RCH =           0.0000                   RCH =           0.0000     RCHA_0          

           TOTAL OUT =          29.9813             TOTAL OUT =           2.9981

            IN - OUT =      -1.6285E-05              IN - OUT =      -1.6285E-06

 PERCENT DISCREPANCY =          -0.00     PERCENT DISCREPANCY =          -0.00




         TIME SUMMARY AT END OF TIME STEP    1 IN STRESS PERIOD    1
                    SECONDS     MINUTES      HOURS       DAYS        YEARS
                    -----------------------------------------------------------
   TIME STEP LENGTH  10.000     0.16667     2.77778E-03 1.15741E-04 3.16881E-07
 STRESS PERIOD TIME  10.000     0.16667     2.77778E-03 1.15741E-04 3.16881E-07
         TOTAL TIME  10.000     0.16667     2.77778E-03 1.15741E-04 3.16881E-07


end timestep

