                                   MODFLOW 6
                U.S. GEOLOGICAL SURVEY MODULAR HYDROLOGIC MODEL
                          GROUNDWATER FLOW MODEL (GWF)
                            VERSION 6.2.2 07/30/2021

   MODFLOW 6 compiled Jul 31 2021 14:22:53 with IFORT compiler (ver. 19.10.3)

This software has been approved for release by the U.S. Geological 
Survey (USGS). Although the software has been subjected to rigorous 
review, the USGS reserves the right to update the software as needed 
pursuant to further analysis and review. No warranty, expressed or 
implied, is made by the USGS or the U.S. Government as to the 
functionality of the software and related material nor shall the 
fact of release constitute any such warranty. Furthermore, the 
software is released on condition that neither the USGS nor the U.S. 
Government shall be held liable for any damages resulting from its 
authorized or unauthorized use. Also refer to the USGS Water 
Resources Software User Rights Notice for complete use, copyright, 
and distribution information.


System command used to initiate simulation:
mf6

MODFLOW was compiled using uniform precision.

Real Variables
  KIND: 8
  TINY (smallest non-zero value):    2.225074-308
  HUGE (largest value):    1.797693+308
  PRECISION: 15
  BIT SIZE: 64

Integer Variables
  KIND: 4
  HUGE (largest value): 2147483647
  BIT SIZE: 32

Long Integer Variables
  KIND: 8
  HUGE (largest value): 9223372036854775807
  BIT SIZE: 64

Logical Variables
  KIND: 4
  BIT SIZE: 32
 

 OPENED ./ml.disv
 FILE TYPE:DISV6                  UNIT 1005   STATUS:OLD                 
 FORMAT:FORMATTED              ACCESS:SEQUENTIAL          
 ACTION:READ                


 OPENED ./ml.ic
 FILE TYPE:IC6                    UNIT 1006   STATUS:OLD                 
 FORMAT:FORMATTED              ACCESS:SEQUENTIAL          
 ACTION:READ                


 OPENED ./ml.npf
 FILE TYPE:NPF6                   UNIT 1007   STATUS:OLD                 
 FORMAT:FORMATTED              ACCESS:SEQUENTIAL          
 ACTION:READ                


 OPENED ./ml.ghb
 FILE TYPE:GHB6                   UNIT 1008   STATUS:OLD                 
 FORMAT:FORMATTED              ACCESS:SEQUENTIAL          
 ACTION:READ                


 OPENED ./ml.rcha
 FILE TYPE:RCH6                   UNIT 1009   STATUS:OLD                 
 FORMAT:FORMATTED              ACCESS:SEQUENTIAL          
 ACTION:READ                


 OPENED ./ml.obs
 FILE TYPE:OBS6                   UNIT 1010   STATUS:OLD                 
 FORMAT:FORMATTED              ACCESS:SEQUENTIAL          
 ACTION:READ                


 OPENED ./ml.oc
 FILE TYPE:OC6                    UNIT 1011   STATUS:OLD                 
 FORMAT:FORMATTED              ACCESS:SEQUENTIAL          
 ACTION:READ                


 OPENED ml.wel
 FILE TYPE:WEL6                   UNIT 1012   STATUS:OLD                 
 FORMAT:FORMATTED              ACCESS:SEQUENTIAL          
 ACTION:READ                


 OPENED ml.drn
 FILE TYPE:DRN6                   UNIT 1013   STATUS:OLD                 
 FORMAT:FORMATTED              ACCESS:SEQUENTIAL          
 ACTION:READ                


 OPENED ml.riv
 FILE TYPE:RIV6                   UNIT 1014   STATUS:OLD                 
 FORMAT:FORMATTED              ACCESS:SEQUENTIAL          
 ACTION:READ                


 DISV -- VERTEX GRID DISCRETIZATION PACKAGE, VERSION 1 : 12/23/2015 - INPUT READ FROM UNIT 1005


 # File generated by Flopy version 3.3.5 on 06/01/2022 at 13:19:19.

 PROCESSING DISCRETIZATION OPTIONS
    MODEL LENGTH UNIT IS METERS
    XORIGIN SPECIFIED AS     405575.681000000    
    YORIGIN SPECIFIED AS     6423306.54000000    
 END OF DISCRETIZATION OPTIONS

 PROCESSING DISCRETIZATION DIMENSIONS
   NLAY = 1
   NCPL = 26674
   NVERT = 27090
 END OF DISCRETIZATION DIMENSIONS

 PROCESSING GRIDDATA
 END PROCESSING GRIDDATA

 PROCESSING VERTICES
   SUCCESSFULLY READ 27090 (X,Y) COORDINATES
   MINIMUM X COORDINATE =     405575.681000000    
   MAXIMUM X COORDINATE =     413975.681000000    
   MINIMUM Y COORDINATE =     6423306.54000000    
   MAXIMUM Y COORDINATE =     6432506.54000000    
 END PROCESSING VERTICES

 PROCESSING CELL2D
   SUCCESSFULLY READ 26674 CELL2D INFORMATION ENTRIES
   MINIMUM X CELL CENTER =     405675.681000000    
   MAXIMUM X CELL CENTER =     413875.681000000    
   MINIMUM Y CELL CENTER =     6423406.54000000    
   MAXIMUM Y CELL CENTER =     6432406.54000000    
   MAXIMUM NUMBER OF CELL2D VERTICES IS 6 FOR CELL 208
 END PROCESSING VERTICES

 NPF -- NODE PROPERTY FLOW PACKAGE, VERSION 1, 3/30/2015 INPUT READ FROM UNIT 1007


 # File generated by Flopy version 3.3.5 on 06/01/2022 at 13:19:21.
 PROCESSING NPF OPTIONS
    CELL-BY-CELL FLOW INFORMATION WILL BE SAVED TO BINARY FILE WHENEVER ICBCFL IS NOT ZERO.
    SPECIFIC DISCHARGE WILL BE CALCULATED AT CELL CENTERS AND WRITTEN TO DATA-SPDIS IN BUDGET FILE WHEN REQUESTED.
 END OF NPF OPTIONS

 WEL   -- WEL PACKAGE, VERSION 8, 2/22/2014 INPUT READ FROM UNIT 1012
 # File generated by Flopy version 3.3.5 on 06/01/2022 at 13:19:22.

 PROCESSING WEL OPTIONS
    WEL BOUNDARIES HAVE NAMES IN LAST COLUMN.
    FLOWS WILL BE SAVED TO BUDGET FILE SPECIFIED IN OUTPUT CONTROL
 END OF WEL OPTIONS

 PROCESSING WEL DIMENSIONS
    MAXBOUND =       9
 END OF WEL DIMENSIONS

 DRN   -- DRN PACKAGE, VERSION 8, 2/22/2014 INPUT READ FROM UNIT 1013
 # File generated by Flopy version 3.3.5 on 06/01/2022 at 13:19:22.

 PROCESSING DRN OPTIONS
    DRN BOUNDARIES HAVE NAMES IN LAST COLUMN.
    FLOWS WILL BE SAVED TO BUDGET FILE SPECIFIED IN OUTPUT CONTROL

 OPENED ml.drn.obs
 FILE TYPE:OBS   UNIT 1016   STATUS:OLD                 
 FORMAT:FORMATTED              ACCESS:SEQUENTIAL          
 ACTION:READ                

 END OF DRN OPTIONS

 PROCESSING DRN DIMENSIONS
    MAXBOUND =     133
 END OF DRN DIMENSIONS

 RIV   -- RIV PACKAGE, VERSION 8, 2/22/2014 INPUT READ FROM UNIT 1014
 # File generated by Flopy version 3.3.5 on 06/01/2022 at 13:19:22.

 PROCESSING RIV OPTIONS
    AUXILIARY RIV VARIABLE: FID             
    RIV BOUNDARIES HAVE NAMES IN LAST COLUMN.
    FLOWS WILL BE SAVED TO BUDGET FILE SPECIFIED IN OUTPUT CONTROL
 END OF RIV OPTIONS

 PROCESSING RIV DIMENSIONS
    MAXBOUND =     794
 END OF RIV DIMENSIONS

 GHB   -- GHB PACKAGE, VERSION 8, 2/22/2014 INPUT READ FROM UNIT 1008
 # File generated by Flopy version 3.3.5 on 06/01/2022 at 13:19:21.

 PROCESSING GHB OPTIONS
    GHB BOUNDARIES HAVE NAMES IN LAST COLUMN.
    FLOWS WILL BE SAVED TO BUDGET FILE SPECIFIED IN OUTPUT CONTROL
 END OF GHB OPTIONS

 PROCESSING GHB DIMENSIONS
    MAXBOUND =     153
 END OF GHB DIMENSIONS

 RCH   -- RCH PACKAGE, VERSION 8, 2/22/2014 INPUT READ FROM UNIT 1009
 # File generated by Flopy version 3.3.5 on 06/01/2022 at 13:19:21.

 PROCESSING RCH OPTIONS
    RECHARGE INPUT WILL BE READ AS ARRAY(S).
    FLOWS WILL BE SAVED TO BUDGET FILE SPECIFIED IN OUTPUT CONTROL
 END OF RCH OPTIONS

 IC -- INITIAL CONDITIONS PACKAGE, VERSION 8, 3/28/2015 INPUT READ FROM UNIT 1006
 # File generated by Flopy version 3.3.5 on 06/01/2022 at 13:19:21.
 PROCESSING GRIDDATA

     INITIAL HEAD =   15.00000    
 END PROCESSING GRIDDATA
 PROCESSING GRIDDATA

                ICELLTYPE = 0

 OPENED ../com_ext/k.txt
 FILE TYPE:OPEN/CLOSE   UNIT 1017   STATUS:OLD                 
 FORMAT:FORMATTED              ACCESS:SEQUENTIAL          
 ACTION:READ                

 K33 not provided.  Assuming K33 = K.
 K22 not provided.  Assuming K22 = K.
 END PROCESSING GRIDDATA

The observation utility is active for "ML"
 # File generated by Flopy version 3.3.5 on 06/01/2022 at 13:19:22.

Processing observation options:

Text output number of digits of precision set to: 10
The PRINT_INPUT option has been specified.


 OBSERVATIONS READ FROM FILE "ml.obs"
 ----------------------------------------------------------------------------------------------------------------------------------------------------------------------------------------------------------------------------
 NAME                                     TYPE                                       TIME         LOCATION DATA                              OUTPUT FILENAME                                                                 
 ----------------------------------------------------------------------------------------------------------------------------------------------------------------------------------------------------------------------------
 PRG                                      CONTINUOUS  HEAD                           ALL TIMES    "1 16523"                                  sim/hds.csv                                                                     
 P8                                       CONTINUOUS  HEAD                           ALL TIMES    "1 10323"                                  sim/hds.csv                                                                     
 P24                                      CONTINUOUS  HEAD                           ALL TIMES    "1 9594"                                   sim/hds.csv                                                                     
 P25                                      CONTINUOUS  HEAD                           ALL TIMES    "1 13966"                                  sim/hds.csv                                                                     
 P32                                      CONTINUOUS  HEAD                           ALL TIMES    "1 15787"                                  sim/hds.csv                                                                     
 P33                                      CONTINUOUS  HEAD                           ALL TIMES    "1 15825"                                  sim/hds.csv                                                                     
 PF                                       CONTINUOUS  HEAD                           ALL TIMES    "1 21048"                                  sim/hds.csv                                                                     
 PH                                       CONTINUOUS  HEAD                           ALL TIMES    "1 20781"                                  sim/hds.csv                                                                     
 PZHM1                                    CONTINUOUS  HEAD                           ALL TIMES    "1 14521"                                  sim/hds.csv                                                                     
 P26                                      CONTINUOUS  HEAD                           ALL TIMES    "1 13141"                                  sim/hds.csv                                                                     
 P27                                      CONTINUOUS  HEAD                           ALL TIMES    "1 8465"                                   sim/hds.csv                                                                     
 P28                                      CONTINUOUS  HEAD                           ALL TIMES    "1 8924"                                   sim/hds.csv                                                                     
 P29                                      CONTINUOUS  HEAD                           ALL TIMES    "1 4524"                                   sim/hds.csv                                                                     
 P30                                      CONTINUOUS  HEAD                           ALL TIMES    "1 5255"                                   sim/hds.csv                                                                     
 R20                                      CONTINUOUS  HEAD                           ALL TIMES    "1 10676"                                  sim/hds.csv                                                                     
 R21                                      CONTINUOUS  HEAD                           ALL TIMES    "1 10403"                                  sim/hds.csv                                                                     
 P34                                      CONTINUOUS  HEAD                           ALL TIMES    "1 15131"                                  sim/hds.csv                                                                     
 P37                                      CONTINUOUS  HEAD                           ALL TIMES    "1 15755"                                  sim/hds.csv                                                                     
 P38                                      CONTINUOUS  HEAD                           ALL TIMES    "1 15045"                                  sim/hds.csv                                                                     
 P39                                      CONTINUOUS  HEAD                           ALL TIMES    "1 9637"                                   sim/hds.csv                                                                     
 P40                                      CONTINUOUS  HEAD                           ALL TIMES    "1 9312"                                   sim/hds.csv                                                                     
 AP1                                      CONTINUOUS  HEAD                           ALL TIMES    "1 9702"                                   sim/hds.csv                                                                     
 RCK1                                     CONTINUOUS  HEAD                           ALL TIMES    "1 15900"                                  sim/hds.csv                                                                     
 RCK2                                     CONTINUOUS  HEAD                           ALL TIMES    "1 15199"                                  sim/hds.csv                                                                     
 P23                                      CONTINUOUS  HEAD                           ALL TIMES    "1 6409"                                   sim/hds.csv                                                                     
 ----------------------------------------------------------------------------------------------------------------------------------------------------------------------------------------------------------------------------


    BINARY GRID INFORMATION WILL BE WRITTEN TO:
      UNIT NUMBER: 1019
      FILE NAME: /srv/common/ptrack/case_study/pst/ml_10/./ml.disv.grb

 OPENED /srv/common/ptrack/case_study/pst/ml_10/./ml.disv.grb
 FILE TYPE:DATA(BINARY)   UNIT 1019   STATUS:REPLACE             
 FORMAT:UNFORMATTED            ACCESS:STREAM              
 ACTION:READWRITE           

      THE LAST TIME STEP WILL BE PRINTED
      THE LAST TIME STEP WILL BE PRINTED
 # File generated by Flopy version 3.3.5 on 06/01/2022 at 13:19:22.

 PROCESSING OC OPTIONS

    BUDGET INFORMATION WILL BE WRITTEN TO:
      UNIT NUMBER: 1020
      FILE NAME: ml.cbc

 OPENED ml.cbc
 FILE TYPE:DATA(BINARY)   UNIT 1020   STATUS:REPLACE             
 FORMAT:UNFORMATTED            ACCESS:STREAM              
 ACTION:READWRITE           

    HEAD INFORMATION WILL BE WRITTEN TO:
      UNIT NUMBER: 1021
      FILE NAME: ml.hds

 OPENED ml.hds
 FILE TYPE:DATA(BINARY)   UNIT 1021   STATUS:REPLACE             
 FORMAT:UNFORMATTED            ACCESS:STREAM              
 ACTION:READWRITE           

 END OF OC OPTIONS

The observation utility is active for "DRN_0"
 # File generated by Flopy version 3.3.5 on 06/01/2022 at 13:19:22.

Processing observation options:



start timestep kper="1" kstp="1" mode="normal"


 BEGIN READING OUTPUT CONTROL FOR STRESS PERIOD 1
      THE LAST TIME STEP WILL BE SAVED
      THE LAST TIME STEP WILL BE SAVED

 END READING OUTPUT CONTROL FOR STRESS PERIOD 1

 OPENED ext/wel_spd_1.txt
 FILE TYPE:OPEN/CLOSE   UNIT 1023   STATUS:OLD                 
 FORMAT:FORMATTED              ACCESS:SEQUENTIAL          
 ACTION:READ                


 OPENED ext/drn_spd_1.txt
 FILE TYPE:OPEN/CLOSE   UNIT 1024   STATUS:OLD                 
 FORMAT:FORMATTED              ACCESS:SEQUENTIAL          
 ACTION:READ                


 OPENED ext/riv_spd_1.txt
 FILE TYPE:OPEN/CLOSE   UNIT 1025   STATUS:OLD                 
 FORMAT:FORMATTED              ACCESS:SEQUENTIAL          
 ACTION:READ                


 OPENED ../com_ext/ghb_spd_1.txt
 FILE TYPE:OPEN/CLOSE   UNIT 1026   STATUS:OLD                 
 FORMAT:FORMATTED              ACCESS:SEQUENTIAL          
 ACTION:READ                


 OPENED ../com_ext/rech_spd_1.txt
 FILE TYPE:OPEN/CLOSE   UNIT 1027   STATUS:OLD                 
 FORMAT:FORMATTED              ACCESS:SEQUENTIAL          
 ACTION:READ                


 SLN_1 INNER ITERATION SUMMARY
 --------------------------------------------------------------------------------------------------------------------------------------
      TOTAL      OUTER      INNER                                                            MAXIMUM                                   
  ITERATION  ITERATION  ITERATION  MAXIMUM CHANGE      MAXIMUM CHANGE MODEL-(CELLID)        RESIDUAL    MAXIMUM RESIDUAL MODEL-(CELLID)
 --------------------------------------------------------------------------------------------------------------------------------------
          1          1          1      -11.760765                    1_GWF-(1,12785)      0.58881898                    1_GWF-(1,15911)
          2          1          2       5.9145666                    1_GWF-(1,26601)      0.39573624                    1_GWF-(1,15921)
          3          1          3       6.0573901                    1_GWF-(1,26565)      0.35193200                    1_GWF-(1,15940)
          4          1          4       5.4976149                    1_GWF-(1,26510)      0.26879339                    1_GWF-(1,15975)
          5          1          5       4.0243162                    1_GWF-(1,26647)     -0.12408337                    1_GWF-(1,15912)
          6          1          6       4.0070948                    1_GWF-(1,26649) -8.10448936E-02                    1_GWF-(1,15918)
          7          1          7       3.3203148                    1_GWF-(1,26663) -9.77794291E-02                    1_GWF-(1,15948)
          8          1          8       4.3738492                    1_GWF-(1,26665) -9.69713052E-02                    1_GWF-(1,15942)
          9          1          9       4.6660592                    1_GWF-(1,26666) -6.09502879E-02                    1_GWF-(1,15940)
         10          1         10       6.4116599                    1_GWF-(1,26665) -6.10113731E-02                    1_GWF-(1,15948)
         11          1         11       4.2676748                    1_GWF-(1,26666)  6.09278049E-02                    1_GWF-(1,15940)
         12          1         12       3.3198896                    1_GWF-(1,26649)  6.14866429E-02                    1_GWF-(1,15942)
         13          1         13       2.9686275                    1_GWF-(1,26622)  4.31287482E-02                    1_GWF-(1,15940)
         14          1         14      -2.8228602                    1_GWF-(1,26622) -3.51334013E-02                    1_GWF-(1,15921)
         15          1         15      -2.3100691                    1_GWF-(1,26623)  3.51848674E-02                    1_GWF-(1,10652)
         16          1         16      -2.0926196                    1_GWF-(1,26622)  4.00557561E-02                    1_GWF-(1,10650)
         17          1         17      -1.9566424                    1_GWF-(1,26623)  3.06247012E-02                    1_GWF-(1,14799)
         18          1         18      -2.0846294                    1_GWF-(1,26589) -3.41293767E-02                    1_GWF-(1,15941)
         19          1         19      -3.5561267                    1_GWF-(1,26588)  4.22230529E-02                    1_GWF-(1,10966)
         20          1         20      -3.7824765                    1_GWF-(1,26543)  4.39106880E-02                    1_GWF-(1,10650)
         21          1         21      -3.3851373                    1_GWF-(1,26588) -2.89151778E-02                    1_GWF-(1,11194)
         22          1         22      -3.1196901                    1_GWF-(1,26486)  3.34573920E-02                    1_GWF-(1,10652)
         23          1         23      -3.2758015                    1_GWF-(1,26487)  3.37486312E-02                    1_GWF-(1,10650)
         24          1         24      -3.3850805                    1_GWF-(1,26486)  3.18338760E-02                    1_GWF-(1,14799)
         25          1         25      -2.8321654                    1_GWF-(1,26487)  2.53121069E-02                    1_GWF-(1,10955)
         26          1         26       2.5460597                    1_GWF-(1,20913)  3.00991866E-02                    1_GWF-(1,10651)
         27          1         27       2.5009071                    1_GWF-(1,20921)  3.08251492E-02                    1_GWF-(1,15853)
         28          1         28       1.7163575                    1_GWF-(1,26487)  2.21257992E-02                    1_GWF-(1,11180)
         29          1         29       1.6600088                    1_GWF-(1,26420)  2.25658239E-02                    1_GWF-(1,10652)
         30          1         30       1.7824423                    1_GWF-(1,26422)  2.64010477E-02                    1_GWF-(1,10650)
         31          1         31       1.7785770                    1_GWF-(1,26350) -2.09665938E-02                    1_GWF-(1,10966)
         32          1         32       1.6517714                    1_GWF-(1,26422) -2.49840986E-02                    1_GWF-(1,10963)
         33          1         33       1.4142472                    1_GWF-(1,26350) -1.68896927E-02                    1_GWF-(1,10958)
         34          1         34       1.3785399                    1_GWF-(1,26422) -1.67095289E-02                    1_GWF-(1,10965)
         35          1         35       1.0827097                    1_GWF-(1,26350) -2.30094492E-02                    1_GWF-(1,10963)
         36          1         36      0.80020462                    1_GWF-(1,26422) -1.88703898E-02                    1_GWF-(1,10958)
         37          1         37     -0.87749794                    1_GWF-(1,26422) -1.56022141E-02                    1_GWF-(1,10968)
         38          1         38     -0.93229999                    1_GWF-(1,26350) -1.50834388E-02                    1_GWF-(1,11180)
         39          1         39     -0.95792743                    1_GWF-(1,26422)  1.94948870E-02                    1_GWF-(1,15942)
         40          1         40     -0.89174215                    1_GWF-(1,26350) -2.09632533E-02                    1_GWF-(1,15941)
         41          1         41     -0.74805250                    1_GWF-(1,26649)  2.01330620E-02                    1_GWF-(1,15939)
         42          1         42     -0.88026628                    1_GWF-(1,26623)  1.94631583E-02                    1_GWF-(1,15940)
         43          1         43     -0.77985463                    1_GWF-(1,26586) -1.64591412E-02                    1_GWF-(1,15940)
         44          1         44     -0.62497212                    1_GWF-(1,26623) -1.97253140E-02                    1_GWF-(1,15941)
         45          1         45      0.48210050                    1_GWF-(1,26218)  2.21141126E-02                    1_GWF-(1,15941)
         46          1         46     -0.57297288                    1_GWF-(1,20926)  1.58936731E-02                    1_GWF-(1,15940)
         47          1         47     -0.60850545                    1_GWF-(1,20933) -2.18373204E-02                    1_GWF-(1,15940)
         48          1         48     -0.68500385                    1_GWF-(1,21272) -1.84549580E-02                    1_GWF-(1,15941)
         49          1         49     -0.68555508                    1_GWF-(1,21261)  2.02289416E-02                    1_GWF-(1,15941)
         50          1         50     -0.70419551                    1_GWF-(1,26218) -2.11872778E-02                    1_GWF-(1,15941)
         51          2          1      -22.799943                    1_GWF-(1,26519)     -0.16350817                    1_GWF-(1,26458)
         52          2          2      -8.8645839                    1_GWF-(1,26569)  4.61743965E-02                    1_GWF-(1,26458)
         53          2          3      -4.0730133                    1_GWF-(1,26637)  2.55915258E-02                    1_GWF-(1,26516)
         54          2          4      -4.5081032                    1_GWF-(1,26665) -2.05645395E-02                    1_GWF-(1,26458)
         55          2          5      -3.3249389                    1_GWF-(1,26649)  1.77446863E-02                    1_GWF-(1,26458)
         56          2          6      -2.6504007                    1_GWF-(1,26589)  1.07882236E-02                    1_GWF-(1,26516)
         57          2          7      -2.3539801                    1_GWF-(1,26543) -1.05897259E-02                    1_GWF-(1,15940)
         58          2          8      -2.0828276                    1_GWF-(1,26486)  1.20497901E-02                    1_GWF-(1,15940)
         59          2          9      -1.6072505                    1_GWF-(1,26487)  1.03849476E-02                     1_GWF-(1,9291)
         60          2         10      -1.4673574                    1_GWF-(1,26350)  1.03669514E-02                     1_GWF-(1,9290)
         61          2         11      -1.2139015                    1_GWF-(1,26422)  1.03278367E-02                     1_GWF-(1,9290)
         62          2         12     -0.97325679                    1_GWF-(1,26217)  1.02741866E-02                     1_GWF-(1,9290)
         63          2         13     -0.82873821                    1_GWF-(1,26218)  1.02100600E-02                     1_GWF-(1,9290)
         64          2         14     -0.59819690                    1_GWF-(1,26649)  1.01188716E-02                     1_GWF-(1,9290)
         65          2         15     -0.69592481                    1_GWF-(1,26622)  9.96287806E-03                     1_GWF-(1,9290)
         66          2         16     -0.80098022                    1_GWF-(1,25515)  9.77190895E-03                     1_GWF-(1,9290)
         67          2         17       1.1256457                    1_GWF-(1,26350)  9.61658459E-03                     1_GWF-(1,9290)
         68          2         18       1.0478886                    1_GWF-(1,26217)  9.54395367E-03                     1_GWF-(1,9290)
         69          2         19      0.89456412                    1_GWF-(1,26218)  9.51249639E-03                     1_GWF-(1,9290)
         70          2         20     -0.57499183                    1_GWF-(1,26588)  9.49333734E-03                     1_GWF-(1,9290)
         71          2         21       1.0899103                    1_GWF-(1,26588)  9.46630897E-03                     1_GWF-(1,9290)
         72          2         22       1.4682489                    1_GWF-(1,26543)  9.30698816E-03                     1_GWF-(1,9290)
         73          2         23      0.88468721                    1_GWF-(1,26542)  9.00821226E-03                     1_GWF-(1,9291)
         74          2         24     -0.88211682                    1_GWF-(1,26422)  8.66988546E-03                     1_GWF-(1,9290)
         75          2         25      -1.1841765                    1_GWF-(1,26486)  8.32509034E-03                     1_GWF-(1,9291)
         76          2         26      -1.3299745                    1_GWF-(1,26487)  8.04269987E-03                     1_GWF-(1,9290)
         77          2         27     -0.93068234                    1_GWF-(1,26420)  7.80783833E-03                     1_GWF-(1,9291)
         78          2         28     -0.48989674                    1_GWF-(1,26543)  7.64369667E-03                     1_GWF-(1,9291)
         79          2         29     -0.46927238                    1_GWF-(1,26327)  7.50771954E-03                     1_GWF-(1,9290)
         80          2         30      0.38809698                    1_GWF-(1,26420)  8.44207743E-03                    1_GWF-(1,15941)
         81          2         31     -0.38936807                    1_GWF-(1,26184)  1.31267044E-02                    1_GWF-(1,15940)
         82          2         32     -0.40460393                    1_GWF-(1,26672)  1.72244134E-02                    1_GWF-(1,15941)
         83          2         33     -0.45378736                    1_GWF-(1,26156)  2.24400779E-02                    1_GWF-(1,15940)
         84          2         34     -0.45350215                    1_GWF-(1,25790) -2.58958117E-02                    1_GWF-(1,15940)
         85          2         35      0.65579753                    1_GWF-(1,26422) -2.61654513E-02                    1_GWF-(1,15941)
         86          2         36      0.56898757                    1_GWF-(1,26350) -1.96058854E-02                    1_GWF-(1,15940)
         87          2         37     -0.55524747                    1_GWF-(1,26350) -1.02490286E-02                    1_GWF-(1,15941)
         88          2         38      0.61068710                    1_GWF-(1,26350) -6.88514161E-03                    1_GWF-(1,26625)
         89          2         39      0.57357120                    1_GWF-(1,26422) -1.18669946E-02                    1_GWF-(1,15940)
         90          2         40     -0.52896766                    1_GWF-(1,26422)  1.91010645E-02                    1_GWF-(1,15940)
         91          2         41      0.40705994                    1_GWF-(1,20977) -2.12930139E-02                    1_GWF-(1,15940)
         92          2         42      0.30120465                    1_GWF-(1,21288)  2.38797300E-02                    1_GWF-(1,15940)
         93          2         43      0.32261729                    1_GWF-(1,21283) -2.30850677E-02                    1_GWF-(1,15940)
         94          2         44      0.34218699                    1_GWF-(1,21271)  2.42344834E-02                    1_GWF-(1,15940)
         95          2         45      0.34754753                    1_GWF-(1,20578) -2.53054557E-02                    1_GWF-(1,15940)
         96          2         46      0.38885273                    1_GWF-(1,20580) -2.29306137E-02                    1_GWF-(1,15941)
         97          2         47      0.40480048                    1_GWF-(1,20570) -1.96762139E-02                    1_GWF-(1,15940)
         98          2         48     -0.30215875                    1_GWF-(1,26422) -1.48316732E-02                    1_GWF-(1,15941)
         99          2         49     -0.29868311                    1_GWF-(1,20996)  1.15219393E-02                    1_GWF-(1,10652)
        100          2         50     -0.34117605                    1_GWF-(1,20983)  9.19842656E-03                    1_GWF-(1,10651)
        101          3          1      0.21379487                    1_GWF-(1,26673) -5.30497566E-02                    1_GWF-(1,11430)
        102          3          2      0.26717439                    1_GWF-(1,26672)  9.44803427E-03                    1_GWF-(1,10651)
        103          3          3     -0.24557810                    1_GWF-(1,26672)  5.02011685E-02                    1_GWF-(1,11430)
        104          3          4      0.25161776                    1_GWF-(1,26350) -3.92112591E-02                    1_GWF-(1,11430)
        105          3          5     -0.31294837                    1_GWF-(1,20616)  1.16204821E-02                    1_GWF-(1,11430)
        106          3          6     -0.23470982                    1_GWF-(1,20609)  1.72247757E-02                    1_GWF-(1,11430)
        107          3          7     -0.19248218                    1_GWF-(1,26674) -2.65514610E-02                    1_GWF-(1,11430)
        108          3          8     -0.23607046                    1_GWF-(1,26663)  1.64399600E-02                    1_GWF-(1,11430)
        109          3          9      0.17618538                    1_GWF-(1,20700)  6.70893040E-03                    1_GWF-(1,10652)
        110          3         10      0.20705658                    1_GWF-(1,20699) -1.89355149E-02                    1_GWF-(1,11430)
        111          3         11      0.23087949                    1_GWF-(1,20596)  1.62372064E-02                    1_GWF-(1,11430)
        112          3         12     -0.24387555                    1_GWF-(1,26422)  5.24674262E-03                    1_GWF-(1,15221)
        113          3         13      0.20117776                    1_GWF-(1,26422) -8.35165945E-03                    1_GWF-(1,11430)
        114          3         14      0.22609164                    1_GWF-(1,26350)  1.23926655E-02                    1_GWF-(1,11430)
        115          3         15     -0.28170607                    1_GWF-(1,26350) -6.28537217E-03                    1_GWF-(1,11430)
        116          3         16     -0.27112107                    1_GWF-(1,26422) -5.60455577E-03                    1_GWF-(1,11430)
        117          3         17      0.22270723                    1_GWF-(1,20913)  1.14716680E-02                    1_GWF-(1,11430)
        118          3         18     -0.19280870                    1_GWF-(1,26672) -6.68938196E-03                    1_GWF-(1,11430)
        119          3         19      0.17334907                    1_GWF-(1,26672)  5.66614476E-03                    1_GWF-(1,14801)
        120          3         20     -0.18498918                    1_GWF-(1,20911)  6.82567539E-03                    1_GWF-(1,11430)
        121          3         21     -0.18338067                    1_GWF-(1,20914) -6.79314777E-03                    1_GWF-(1,11430)
        122          3         22     -0.18511604                    1_GWF-(1,20229)  5.24214459E-03                    1_GWF-(1,14800)
        123          3         23     -0.13589130                    1_GWF-(1,20571)  5.16454641E-03                    1_GWF-(1,14801)
        124          3         24      0.21917686                    1_GWF-(1,26486) -5.26664224E-03                    1_GWF-(1,11430)
        125          3         25      0.25676755                    1_GWF-(1,26487) -3.34308782E-03                    1_GWF-(1,15221)
        126          3         26      0.19132745                    1_GWF-(1,26486)  4.48500695E-03                    1_GWF-(1,11430)
        127          3         27      0.11790999                    1_GWF-(1,26422)  4.63414521E-03                    1_GWF-(1,14800)
        128          3         28     -0.18567060                    1_GWF-(1,26588)  6.21073567E-03                    1_GWF-(1,14801)
        129          3         29     -0.28301609                    1_GWF-(1,26543)  4.97121579E-03                    1_GWF-(1,14800)
        130          3         30     -0.23814381                    1_GWF-(1,26588) -2.75550405E-03                    1_GWF-(1,11430)
        131          3         31      0.17875175                    1_GWF-(1,26588)  4.79908153E-03                    1_GWF-(1,14801)
        132          3         32     -0.10120572                    1_GWF-(1,26588)  6.45015192E-03                    1_GWF-(1,14800)
        133          3         33     -0.12344783                    1_GWF-(1,26422)  6.52549272E-03                    1_GWF-(1,14801)
        134          3         34      0.14399469                    1_GWF-(1,26622) -5.57490928E-03                    1_GWF-(1,14801)
        135          3         35     -0.12736128                    1_GWF-(1,26622)  2.95380082E-03                    1_GWF-(1,11430)
        136          3         36      0.12430471                    1_GWF-(1,26622) -3.27520255E-03                    1_GWF-(1,14800)
        137          3         37      0.11911499                    1_GWF-(1,26649) -5.18886559E-03                    1_GWF-(1,14801)
        138          3         38  9.76985796E-02                    1_GWF-(1,26622) -4.95906205E-03                    1_GWF-(1,14800)
        139          3         39  8.59435137E-02                    1_GWF-(1,26217)  3.14375009E-03                    1_GWF-(1,14800)
        140          3         40     -0.14101289                    1_GWF-(1,26665)  1.58788882E-03                     1_GWF-(1,9290)
        141          3         41     -0.10543282                    1_GWF-(1,26666)  2.73184692E-03                    1_GWF-(1,14801)
        142          3         42     -0.10315462                    1_GWF-(1,26665) -5.47941912E-03                    1_GWF-(1,14801)
        143          3         43 -8.65649111E-02                    1_GWF-(1,26217) -6.62007597E-03                    1_GWF-(1,14800)
        144          3         44  8.56730840E-02                    1_GWF-(1,26588) -7.66395860E-03                    1_GWF-(1,14801)
        145          3         45  8.84350219E-02                    1_GWF-(1,26649) -8.66964560E-03                    1_GWF-(1,14800)
        146          3         46      0.11301185                    1_GWF-(1,26648) -1.09679217E-02                    1_GWF-(1,14801)
        147          3         47  8.59014505E-02                    1_GWF-(1,26218) -1.01848242E-02                    1_GWF-(1,14800)
        148          3         48  9.23446999E-02                    1_GWF-(1,26453) -9.81951626E-03                    1_GWF-(1,14801)
        149          3         49     -0.11650430                    1_GWF-(1,26648)  9.48768500E-03                    1_GWF-(1,14801)
        150          3         50     -0.12605246                    1_GWF-(1,26463) -1.01296688E-02                    1_GWF-(1,14801)
        151          4          1 -7.00475512E-02                    1_GWF-(1,26217) -8.06045222E-03                    1_GWF-(1,14800)
        152          4          2 -6.95149840E-02                    1_GWF-(1,26218) -9.34868863E-03                    1_GWF-(1,14801)
        153          4          3 -5.79052645E-02                    1_GWF-(1,26217) -8.61728658E-03                    1_GWF-(1,14800)
        154          4          4  6.63813203E-02                    1_GWF-(1,26453) -1.03726073E-02                    1_GWF-(1,14801)
        155          4          5 -6.43654818E-02                    1_GWF-(1,20226) -1.00286024E-02                    1_GWF-(1,14800)
        156          4          6 -7.21217197E-02                    1_GWF-(1,26218) -7.96788446E-03                    1_GWF-(1,14801)
        157          4          7 -6.20113297E-02                    1_GWF-(1,20211) -6.78383400E-03                    1_GWF-(1,14800)
        158          4          8 -5.34657961E-02                    1_GWF-(1,26665) -5.77086406E-03                    1_GWF-(1,14801)
        159          4          9 -5.94908666E-02                    1_GWF-(1,26666) -3.81751913E-03                    1_GWF-(1,14800)
        160          4         10  6.54427397E-02                    1_GWF-(1,26666) -1.80192085E-03                    1_GWF-(1,14801)
        161          4         11  9.41967895E-02                    1_GWF-(1,26665) -1.37962331E-03                    1_GWF-(1,14801)
        162          4         12  6.10268911E-02                    1_GWF-(1,26666) -4.04609512E-03                    1_GWF-(1,14800)
        163          4         13  5.40766782E-02                    1_GWF-(1,26649) -4.98501883E-03                    1_GWF-(1,14801)
        164          4         14  5.22154863E-02                    1_GWF-(1,26622) -4.07605891E-03                    1_GWF-(1,14800)
        165          4         15 -5.90909241E-02                    1_GWF-(1,26622) -1.83447350E-03                    1_GWF-(1,14801)
        166          4         16 -6.87957510E-02                    1_GWF-(1,26649) -2.44288540E-03                    1_GWF-(1,14801)
        167          4         17 -7.88560660E-02                    1_GWF-(1,26622)  4.12942103E-03                    1_GWF-(1,14801)
        168          4         18 -5.64547432E-02                    1_GWF-(1,26623)  5.12296006E-03                    1_GWF-(1,14800)
        169          4         19 -5.12971559E-02                    1_GWF-(1,26543)  4.96798360E-03                    1_GWF-(1,14801)
        170          4         20 -9.32971417E-02                    1_GWF-(1,26588)  2.41081355E-03                    1_GWF-(1,14800)
        171          4         21 -8.29311195E-02                    1_GWF-(1,26543)  1.50841162E-03                    1_GWF-(1,11430)
        172          4         22  8.80335885E-02                    1_GWF-(1,26543)  3.19523912E-03                    1_GWF-(1,14801)
        173          4         23  6.15388899E-02                    1_GWF-(1,26588) -3.92130824E-03                    1_GWF-(1,14801)
        174          4         24  4.85818291E-02                    1_GWF-(1,26486) -4.02777250E-03                    1_GWF-(1,14800)
        175          4         25  6.30869246E-02                    1_GWF-(1,26487) -2.58733021E-03                    1_GWF-(1,14801)
        176          4         26 -7.56528934E-02                    1_GWF-(1,26487) -1.27179882E-03                    1_GWF-(1,11430)
        177          4         27 -6.75622178E-02                    1_GWF-(1,26420)  3.70554666E-03                    1_GWF-(1,14801)
        178          4         28 -4.72739613E-02                    1_GWF-(1,26487)  4.74485920E-03                    1_GWF-(1,14800)
        179          4         29  4.93941858E-02                    1_GWF-(1,20229)  5.43906367E-03                    1_GWF-(1,14801)
        180          4         30  5.00838851E-02                    1_GWF-(1,20913)  5.33666292E-03                    1_GWF-(1,14800)
        181          4         31  4.47629236E-02                    1_GWF-(1,20912)  5.25357984E-03                    1_GWF-(1,14801)
        182          4         32 -4.31211191E-02                    1_GWF-(1,26672)  5.13003026E-03                    1_GWF-(1,14800)
        183          4         33 -4.80380011E-02                    1_GWF-(1,26665)  5.92373136E-03                    1_GWF-(1,14801)
        184          4         34 -4.65123308E-02                    1_GWF-(1,26422)  5.50682823E-03                    1_GWF-(1,14800)
        185          4         35 -5.55631862E-02                    1_GWF-(1,26350)  4.59433788E-03                    1_GWF-(1,14801)
        186          4         36 -6.22313743E-02                    1_GWF-(1,26422)  3.12671510E-03                    1_GWF-(1,14800)
        187          4         37 -6.20769207E-02                    1_GWF-(1,26350)  1.82247478E-03                    1_GWF-(1,14801)
        188          4         38 -5.99512086E-02                    1_GWF-(1,26422)  1.16271347E-03                    1_GWF-(1,15941)
        189          4         39 -5.29202435E-02                    1_GWF-(1,20587)  2.35992485E-03                    1_GWF-(1,14800)
        190          4         40 -4.85634266E-02                    1_GWF-(1,20592)  4.13039321E-03                    1_GWF-(1,14801)
        191          4         41 -4.79147487E-02                    1_GWF-(1,20606)  4.60911723E-03                    1_GWF-(1,14800)
        192          4         42  3.51476375E-02                    1_GWF-(1,26544)  5.10280519E-03                    1_GWF-(1,14801)
        193          4         43  4.12288937E-02                    1_GWF-(1,26421)  5.46659905E-03                    1_GWF-(1,14800)
        194          4         44  3.73424853E-02                    1_GWF-(1,26348)  5.84865938E-03                    1_GWF-(1,14801)
        195          4         45  5.14024479E-02                    1_GWF-(1,26218)  5.39985355E-03                    1_GWF-(1,14800)
        196          4         46  3.84169613E-02                    1_GWF-(1,20618)  5.71337660E-03                    1_GWF-(1,14801)
        197          4         47  3.28103417E-02                    1_GWF-(1,20738)  5.32725211E-03                    1_GWF-(1,14800)
        198          4         48  2.52253691E-02                    1_GWF-(1,26397)  4.61725498E-03                    1_GWF-(1,14801)
        199          4         49 -2.43385909E-02                    1_GWF-(1,26217)  3.49092509E-03                    1_GWF-(1,14800)
        200          4         50 -3.04126689E-02                    1_GWF-(1,26218)  3.36079702E-03                    1_GWF-(1,14801)
        201          5          1 -1.37829787E-02                    1_GWF-(1,26217)  3.07364307E-03                    1_GWF-(1,14800)
        202          5          2 -2.17931677E-02                    1_GWF-(1,26218)  3.96591458E-03                    1_GWF-(1,14801)
        203          5          3 -2.00151952E-02                    1_GWF-(1,26397)  4.39741048E-03                    1_GWF-(1,14800)
        204          5          4 -2.07054924E-02                    1_GWF-(1,20738)  4.72409200E-03                    1_GWF-(1,14801)
        205          5          5 -2.68362096E-02                    1_GWF-(1,20706)  4.36852931E-03                    1_GWF-(1,14800)
        206          5          6 -3.09808161E-02                    1_GWF-(1,26218)  4.23875518E-03                    1_GWF-(1,14801)
        207          5          7 -2.32440433E-02                    1_GWF-(1,26217)  3.73500661E-03                    1_GWF-(1,14800)
        208          5          8 -2.20273472E-02                    1_GWF-(1,26421)  3.40317090E-03                    1_GWF-(1,14801)
        209          5          9  2.06425425E-02                    1_GWF-(1,20708)  2.96450716E-03                    1_GWF-(1,14800)
        210          5         10  2.55247576E-02                    1_GWF-(1,20614)  2.71373064E-03                    1_GWF-(1,14801)
        211          5         11  2.50740897E-02                    1_GWF-(1,20600)  1.85103266E-03                    1_GWF-(1,14800)
        212          5         12  2.42773451E-02                    1_GWF-(1,26350) -1.07652720E-03                    1_GWF-(1,15940)
        213          5         13  3.47799917E-02                    1_GWF-(1,26422) -1.03143731E-03                    1_GWF-(1,11430)
        214          5         14  3.45018289E-02                    1_GWF-(1,26350)  1.00120435E-03                    1_GWF-(1,11430)
        215          5         15  3.06732269E-02                    1_GWF-(1,26422)  1.64796532E-03                    1_GWF-(1,14801)
        216          5         16  2.58491838E-02                    1_GWF-(1,26350)  1.99819430E-03                    1_GWF-(1,14800)
        217          5         17  2.11801181E-02                    1_GWF-(1,26422)  2.25195954E-03                    1_GWF-(1,14801)
        218          5         18 -1.43021022E-02                    1_GWF-(1,26422)  2.13711556E-03                    1_GWF-(1,14800)
        219          5         19 -1.61394709E-02                    1_GWF-(1,26350)  2.15557414E-03                    1_GWF-(1,14801)
        220          5         20 -1.80741660E-02                    1_GWF-(1,20911)  1.91118575E-03                    1_GWF-(1,14800)
        221          5         21 -2.20815765E-02                    1_GWF-(1,26420)  1.57016100E-03                    1_GWF-(1,14801)
        222          5         22 -2.46528030E-02                    1_GWF-(1,26487)  7.72935251E-04                    1_GWF-(1,14800)
        223          5         23 -2.53734375E-02                    1_GWF-(1,26486)  7.05032405E-04                    1_GWF-(1,11430)
        224          5         24  1.99588041E-02                    1_GWF-(1,26486)  1.34191428E-03                    1_GWF-(1,14801)
        225          5         25  1.45924870E-02                    1_GWF-(1,20216) -1.49185163E-03                    1_GWF-(1,14801)
        226          5         26  1.17400077E-02                    1_GWF-(1,20216) -1.32391748E-03                    1_GWF-(1,14800)
        227          5         27  1.06172605E-02                    1_GWF-(1,26588)  1.01364668E-03                    1_GWF-(1,14800)
        228          5         28 -1.72664604E-02                    1_GWF-(1,26588)  6.55985590E-04                    1_GWF-(1,14801)
        229          5         29 -2.04668867E-02                    1_GWF-(1,26543)  5.49452045E-04                    1_GWF-(1,11430)
        230          5         30 -1.59471876E-02                    1_GWF-(1,26588)  7.31069411E-04                    1_GWF-(1,14800)
        231          5         31  1.55373974E-02                    1_GWF-(1,26588)  1.01752403E-03                    1_GWF-(1,14801)
        232          5         32  9.89160032E-03                    1_GWF-(1,26622)  8.11469101E-04                    1_GWF-(1,14800)
        233          5         33  1.47634328E-02                    1_GWF-(1,26623)  4.63165698E-04                    1_GWF-(1,14801)
        234          5         34  2.05208488E-02                    1_GWF-(1,26622) -5.08668158E-04                    1_GWF-(1,11430)
        235          5         35  1.53122801E-02                    1_GWF-(1,26543) -6.91186521E-04                    1_GWF-(1,14801)
        236          5         36  1.13176649E-02                    1_GWF-(1,26588) -8.13420910E-04                    1_GWF-(1,14800)
        237          5         37  8.26581806E-03                    1_GWF-(1,26665) -8.31569438E-04                    1_GWF-(1,14801)
        238          5         38  1.10803647E-02                    1_GWF-(1,26663) -6.42406380E-04                    1_GWF-(1,14800)
        239          5         39 -1.14621172E-02                    1_GWF-(1,26666)  3.02333782E-04                    1_GWF-(1,11514)
        240          5         40 -1.56796975E-02                    1_GWF-(1,26665) -3.78679479E-04                    1_GWF-(1,11430)
        241          5         41 -1.07358725E-02                    1_GWF-(1,26666) -5.40176663E-04                    1_GWF-(1,14800)
        242          5         42 -8.07941058E-03                    1_GWF-(1,26665) -8.69311341E-04                    1_GWF-(1,14801)
        243          5         43 -1.00789844E-02                    1_GWF-(1,26217) -9.82807337E-04                    1_GWF-(1,14800)
        244          5         44  7.64348972E-03                    1_GWF-(1,20215) -1.12234335E-03                    1_GWF-(1,14801)
        245          5         45  7.50794845E-03                    1_GWF-(1,26665) -1.39162437E-03                    1_GWF-(1,14800)
        246          5         46  8.07909674E-03                    1_GWF-(1,26666) -1.45428098E-03                    1_GWF-(1,14801)
        247          5         47  7.92442449E-03                    1_GWF-(1,26218) -1.16492885E-03                    1_GWF-(1,14800)
        248          5         48  1.06618053E-02                    1_GWF-(1,26217) -1.21771512E-03                    1_GWF-(1,14801)
        249          5         49  1.21108921E-02                    1_GWF-(1,26218) -1.04680819E-03                    1_GWF-(1,14800)
        250          5         50  9.69447937E-03                    1_GWF-(1,26217) -1.10255728E-03                    1_GWF-(1,14801)
        251          6          1 -9.09304282E-03                    1_GWF-(1,26217) -9.45788629E-04                    1_GWF-(1,14800)
        252          6          2 -1.00418394E-02                    1_GWF-(1,26218) -1.04325923E-03                    1_GWF-(1,14801)
        253          6          3 -8.52404119E-03                    1_GWF-(1,26217) -9.50447023E-04                    1_GWF-(1,14800)
        254          6          4  7.02571881E-03                    1_GWF-(1,26217) -1.18910149E-03                    1_GWF-(1,14801)
        255          6          5 -6.30677961E-03                    1_GWF-(1,20226) -1.15681477E-03                    1_GWF-(1,14800)
        256          6          6 -6.94944973E-03                    1_GWF-(1,26218) -8.87987765E-04                    1_GWF-(1,14801)
        257          6          7 -5.69696249E-03                    1_GWF-(1,20212) -7.48248384E-04                    1_GWF-(1,14800)
        258          6          8  5.83480996E-03                    1_GWF-(1,26217) -6.43545106E-04                    1_GWF-(1,14801)
        259          6          9 -5.74620445E-03                    1_GWF-(1,26666) -4.10864629E-04                    1_GWF-(1,14800)
        260          6         10  6.54883803E-03                    1_GWF-(1,26666) -2.94141690E-04                    1_GWF-(1,11430)
        261          6         11  9.65422027E-03                    1_GWF-(1,26665)  1.54816483E-04                    1_GWF-(1,11430)
        262          6         12  7.20395274E-03                    1_GWF-(1,26666) -3.93312768E-04                    1_GWF-(1,14800)
        263          6         13 -6.76415126E-03                    1_GWF-(1,26666) -5.06017231E-04                    1_GWF-(1,14801)
        264          6         14 -4.42926443E-03                    1_GWF-(1,26665) -5.04366196E-04                    1_GWF-(1,14800)
        265          6         15  6.19154372E-03                    1_GWF-(1,26649) -4.16691052E-04                    1_GWF-(1,14801)
        266          6         16 -7.79348368E-03                    1_GWF-(1,26649) -3.25807514E-04                    1_GWF-(1,11430)
        267          6         17 -1.01430076E-02                    1_GWF-(1,26622)  2.39477584E-04                    1_GWF-(1,14801)
        268          6         18 -7.37960019E-03                    1_GWF-(1,26623)  4.52154728E-04                    1_GWF-(1,14800)
        269          6         19  6.81535358E-03                    1_GWF-(1,26623)  5.58009573E-04                    1_GWF-(1,14801)
        270          6         20 -7.09308349E-03                    1_GWF-(1,26588)  3.84153795E-04                    1_GWF-(1,14800)
        271          6         21 -7.44368159E-03                    1_GWF-(1,26589)  3.12104947E-04                    1_GWF-(1,11430)
        272          6         22  8.22257854E-03                    1_GWF-(1,26543) -2.51685297E-04                    1_GWF-(1,14800)
        273          6         23  7.28460540E-03                    1_GWF-(1,26588) -4.38414425E-04                    1_GWF-(1,14801)
        274          6         24 -4.83504894E-03                    1_GWF-(1,26588) -5.56311102E-04                    1_GWF-(1,14800)
        275          6         25  4.58072804E-03                    1_GWF-(1,26588) -5.91100112E-04                    1_GWF-(1,14801)
        276          6         26  8.04852009E-03                    1_GWF-(1,26543)  5.82337926E-04                    1_GWF-(1,14801)
        277          6         27  7.39345700E-03                    1_GWF-(1,26544)  3.26265328E-04                    1_GWF-(1,11430)
        278          6         28  8.98388558E-03                    1_GWF-(1,26486)  2.43691797E-04                    1_GWF-(1,14800)
        279          6         29  8.13711847E-03                    1_GWF-(1,26487)  5.32601904E-04                    1_GWF-(1,14801)
        280          6         30  6.45634757E-03                    1_GWF-(1,26420)  6.15057605E-04                    1_GWF-(1,14800)
        281          6         31  4.44887407E-03                    1_GWF-(1,20911)  6.40645565E-04                    1_GWF-(1,14801)
        282          6         32 -4.66250636E-03                    1_GWF-(1,26672)  5.88657636E-04                    1_GWF-(1,14800)
        283          6         33 -4.37909195E-03                    1_GWF-(1,26665)  5.84346114E-04                    1_GWF-(1,14801)
        284          6         34 -5.21095676E-03                    1_GWF-(1,26422)  5.09066325E-04                    1_GWF-(1,14800)
        285          6         35 -6.67902074E-03                    1_GWF-(1,26350)  4.30101770E-04                    1_GWF-(1,14801)
        286          6         36 -7.78753813E-03                    1_GWF-(1,26422)  2.83064627E-04                    1_GWF-(1,14800)
        287          6         37 -8.46882534E-03                    1_GWF-(1,26350) -3.00066169E-04                    1_GWF-(1,11430)
        288          6         38 -8.30673646E-03                    1_GWF-(1,26422)  2.31831457E-04                    1_GWF-(1,15941)
        289          6         39 -6.20605054E-03                    1_GWF-(1,20590)  3.08539869E-04                    1_GWF-(1,14800)
        290          6         40 -5.73259837E-03                    1_GWF-(1,20592)  4.63312293E-04                    1_GWF-(1,14801)
        291          6         41 -5.51946138E-03                    1_GWF-(1,20614)  4.94357320E-04                    1_GWF-(1,14800)
        292          6         42  3.80725753E-03                    1_GWF-(1,26420)  5.43233569E-04                    1_GWF-(1,14801)
        293          6         43  5.23023213E-03                    1_GWF-(1,26421)  5.62377907E-04                    1_GWF-(1,14800)
        294          6         44  4.61087272E-03                    1_GWF-(1,26348)  5.93693253E-04                    1_GWF-(1,14801)
        295          6         45  5.03001652E-03                    1_GWF-(1,26218)  5.62911936E-04                    1_GWF-(1,14800)
        296          6         46  3.89000691E-03                    1_GWF-(1,20618)  5.99786055E-04                    1_GWF-(1,14801)
        297          6         47  3.02453751E-03                    1_GWF-(1,20738)  5.56651672E-04                    1_GWF-(1,14800)
        298          6         48  2.68501574E-03                    1_GWF-(1,26397)  4.92869991E-04                    1_GWF-(1,14801)
        299          6         49 -2.31612572E-03                    1_GWF-(1,26419)  3.79253979E-04                    1_GWF-(1,14800)
        300          6         50 -2.33948772E-03                    1_GWF-(1,26218)  3.76721782E-04                    1_GWF-(1,14801)
        301          7          1 -1.54130964E-03                    1_GWF-(1,26217) -3.57722202E-04                    1_GWF-(1,14801)
        302          7          2 -2.49884206E-03                    1_GWF-(1,26218)  4.39385873E-04                    1_GWF-(1,14801)
        303          7          3 -2.45758307E-03                    1_GWF-(1,26589)  4.85853168E-04                    1_GWF-(1,14800)
        304          7          4 -2.57334852E-03                    1_GWF-(1,26486)  5.15859842E-04                    1_GWF-(1,14801)
        305          7          5 -2.74857288E-03                    1_GWF-(1,26544)  4.82896761E-04                    1_GWF-(1,14800)
        306          7          6 -3.52068010E-03                    1_GWF-(1,26218)  4.91935844E-04                    1_GWF-(1,14801)
        307          7          7 -2.87369047E-03                    1_GWF-(1,26217)  4.45049656E-04                    1_GWF-(1,14800)
        308          7          8 -3.00341439E-03                    1_GWF-(1,26421)  4.06420974E-04                    1_GWF-(1,14801)
        309          7          9  2.29508104E-03                    1_GWF-(1,20708)  3.53326788E-04                    1_GWF-(1,14800)
        310          7         10  2.93558169E-03                    1_GWF-(1,20614)  3.22520992E-04                    1_GWF-(1,14801)
        311          7         11  2.89869600E-03                    1_GWF-(1,20611)  2.16233021E-04                    1_GWF-(1,14800)
        312          7         12  3.13530936E-03                    1_GWF-(1,26544) -1.25691846E-04                    1_GWF-(1,15940)
        313          7         13  4.28449201E-03                    1_GWF-(1,26422) -1.46475104E-04                    1_GWF-(1,11430)
        314          7         14  4.24556204E-03                    1_GWF-(1,26350)  1.47670850E-04                    1_GWF-(1,11430)
        315          7         15  3.75607392E-03                    1_GWF-(1,26422)  1.89481699E-04                    1_GWF-(1,14801)
        316          7         16  3.07779243E-03                    1_GWF-(1,26350)  2.14998534E-04                    1_GWF-(1,14800)
        317          7         17  2.85640552E-03                    1_GWF-(1,26486)  2.14322165E-04                    1_GWF-(1,14801)
        318          7         18  2.27724703E-03                    1_GWF-(1,26544)  1.27534794E-04                    1_GWF-(1,14800)
        319          7         19  2.70743791E-03                    1_GWF-(1,26622) -1.17737523E-04                    1_GWF-(1,11430)
        320          7         20  2.64790802E-03                    1_GWF-(1,26623)  1.83665240E-04                    1_GWF-(1,14801)
        321          7         21 -2.27630128E-03                    1_GWF-(1,26422)  2.17647369E-04                    1_GWF-(1,14800)
        322          7         22 -1.99999342E-03                    1_GWF-(1,20229)  2.25348420E-04                    1_GWF-(1,14801)
        323          7         23 -1.49448267E-03                    1_GWF-(1,26422)  2.26141689E-04                    1_GWF-(1,14800)
        324          7         24 -1.31856887E-03                    1_GWF-(1,22914)  2.16412881E-04                    1_GWF-(1,14801)
        325          7         25  1.70912883E-03                    1_GWF-(1,20218) -1.84780896E-04                    1_GWF-(1,14801)
        326          7         26  1.21791214E-03                    1_GWF-(1,20216) -1.57163015E-04                    1_GWF-(1,14800)
        327          7         27 -1.08029367E-03                    1_GWF-(1,26585) -1.24024948E-04                    1_GWF-(1,14801)
        328          7         28 -1.58307578E-03                    1_GWF-(1,26588) -8.51212575E-05                    1_GWF-(1,14800)
        329          7         29 -2.18548126E-03                    1_GWF-(1,26543)  9.04837559E-05                    1_GWF-(1,11430)
        330          7         30  1.78469052E-03                    1_GWF-(1,26543)  6.67427961E-05                    1_GWF-(1,14800)
        331          7         31  2.14548993E-03                    1_GWF-(1,26588)  1.10826845E-04                    1_GWF-(1,14801)
        332          7         32  1.40236252E-03                    1_GWF-(1,26543)  9.63589781E-05                    1_GWF-(1,14800)
        333          7         33  1.25520739E-03                    1_GWF-(1,26487)  6.86562486E-05                    1_GWF-(1,14801)
        334          7         34  1.60434057E-03                    1_GWF-(1,26420) -5.75691512E-05                    1_GWF-(1,11430)
        335          7         35 -1.62938628E-03                    1_GWF-(1,26665) -5.79951898E-05                    1_GWF-(1,14801)
        336          7         36  1.26655027E-03                    1_GWF-(1,26350) -8.46861894E-05                    1_GWF-(1,14800)
        337          7         37  1.06128189E-03                    1_GWF-(1,26487) -9.17290318E-05                    1_GWF-(1,14801)
        338          7         38  1.15761488E-03                    1_GWF-(1,26420) -7.63803221E-05                    1_GWF-(1,14800)
        339          7         39 -1.14452562E-03                    1_GWF-(1,26623) -3.90286683E-05                    1_GWF-(1,14801)
        340          7         40 -1.43696348E-03                    1_GWF-(1,26665) -5.10313437E-05                    1_GWF-(1,11430)
        341          7         41 -1.01616500E-03                    1_GWF-(1,26666) -5.90402050E-05                    1_GWF-(1,14800)
        342          7         42  8.53298067E-04                    1_GWF-(1,26666) -9.65788735E-05                    1_GWF-(1,14801)
        343          7         43 -1.06810860E-03                    1_GWF-(1,26217) -1.08397163E-04                    1_GWF-(1,14800)
        344          7         44  9.75462629E-04                    1_GWF-(1,20216) -1.22167659E-04                    1_GWF-(1,14801)
        345          7         45  9.73711670E-04                    1_GWF-(1,20917) -1.48134193E-04                    1_GWF-(1,14800)
        346          7         46  8.24742385E-04                    1_GWF-(1,20232) -1.49263847E-04                    1_GWF-(1,14801)
        347          7         47  8.51198218E-04                    1_GWF-(1,26218) -1.17403849E-04                    1_GWF-(1,14800)
        348          7         48  1.28277630E-03                    1_GWF-(1,26217) -1.27116385E-04                    1_GWF-(1,14801)
        349          7         49  1.43725758E-03                    1_GWF-(1,26218) -1.14670068E-04                    1_GWF-(1,14800)
        350          7         50  1.17509007E-03                    1_GWF-(1,26217) -1.24098941E-04                    1_GWF-(1,14801)
        351          8          1 -1.12274059E-03                    1_GWF-(1,26217) -1.07540670E-04                    1_GWF-(1,14800)
        352          8          2 -1.26386989E-03                    1_GWF-(1,26218) -1.15075417E-04                    1_GWF-(1,14801)
        353          8          3 -1.07122423E-03                    1_GWF-(1,26217)  1.04344333E-04                    1_GWF-(1,14801)
        354          8          4  7.21854410E-04                    1_GWF-(1,26217) -1.28602805E-04                    1_GWF-(1,14801)
        355          8          5 -7.12853305E-04                    1_GWF-(1,20232) -1.26769191E-04                    1_GWF-(1,14800)
        356          8          6 -7.18475792E-04                    1_GWF-(1,26218) -1.01262380E-04                    1_GWF-(1,14801)
        357          8          7 -6.72973354E-04                    1_GWF-(1,20216) -8.70710918E-05                    1_GWF-(1,14800)
        358          8          8  7.35400914E-04                    1_GWF-(1,26217) -7.58220982E-05                    1_GWF-(1,14801)
        359          8          9 -6.18403731E-04                    1_GWF-(1,26666) -4.75210592E-05                    1_GWF-(1,14800)
        360          8         10 -6.86929618E-04                    1_GWF-(1,26665) -3.62527541E-05                    1_GWF-(1,11430)
        361          8         11  9.04603414E-04                    1_GWF-(1,26665) -2.37293582E-05                    1_GWF-(1,14801)
        362          8         12  6.66496303E-04                    1_GWF-(1,26623) -4.96086277E-05                    1_GWF-(1,14800)
        363          8         13 -7.95399774E-04                    1_GWF-(1,26420) -5.98644410E-05                    1_GWF-(1,14801)
        364          8         14 -7.27627429E-04                    1_GWF-(1,26487) -5.61869386E-05                    1_GWF-(1,14800)
        365          8         15 -8.81046853E-04                    1_GWF-(1,26350) -3.80129716E-05                    1_GWF-(1,14801)
        366          8         16  9.29482152E-04                    1_GWF-(1,26665) -3.78409366E-05                    1_GWF-(1,11430)
        367          8         17 -9.68351420E-04                    1_GWF-(1,26420)  4.15608567E-05                    1_GWF-(1,14801)
        368          8         18 -7.53137559E-04                    1_GWF-(1,26487)  5.87660342E-05                    1_GWF-(1,14800)
        369          8         19 -7.00959605E-04                    1_GWF-(1,26543)  6.50804618E-05                    1_GWF-(1,14801)
        370          8         20 -1.16467680E-03                    1_GWF-(1,26588)  3.68604816E-05                    1_GWF-(1,14800)
        371          8         21 -1.04461666E-03                    1_GWF-(1,26543)  4.18335967E-05                    1_GWF-(1,11430)
        372          8         22  1.10576267E-03                    1_GWF-(1,26543) -4.10525812E-05                    1_GWF-(1,14800)
        373          8         23  8.35481251E-04                    1_GWF-(1,26588) -5.86191061E-05                    1_GWF-(1,14801)
        374          8         24  4.62515845E-04                    1_GWF-(1,26589) -6.86823717E-05                    1_GWF-(1,14800)
        375          8         25  5.53664739E-04                    1_GWF-(1,26588)  7.30346328E-05                    1_GWF-(1,14800)
        376          8         26  9.35519120E-04                    1_GWF-(1,26543)  7.49102487E-05                    1_GWF-(1,14801)
        377          8         27  9.26757850E-04                    1_GWF-(1,26649)  4.38042174E-05                    1_GWF-(1,14800)
        378          8         28  9.94641043E-04                    1_GWF-(1,26622)  2.41256031E-05                    1_GWF-(1,14800)
        379          8         29  7.70878577E-04                    1_GWF-(1,26623)  6.31367633E-05                    1_GWF-(1,14801)
        380          8         30 -6.33227004E-04                    1_GWF-(1,26623)  7.55462684E-05                    1_GWF-(1,14800)
        381          8         31 -5.91528763E-04                    1_GWF-(1,26622)  7.97784665E-05                    1_GWF-(1,14801)
        382          8         32 -6.26253671E-04                    1_GWF-(1,26623)  7.13967081E-05                    1_GWF-(1,14800)
        383          8         33 -4.64845260E-04                    1_GWF-(1,26544)  6.75189766E-05                    1_GWF-(1,14801)
        384          8         34 -6.00711451E-04                    1_GWF-(1,26486)  5.72181545E-05                    1_GWF-(1,14800)
        385          8         35 -8.08303975E-04                    1_GWF-(1,26350)  4.87380785E-05                    1_GWF-(1,14801)
        386          8         36 -9.66453297E-04                    1_GWF-(1,26422)  3.16862059E-05                    1_GWF-(1,14800)
        387          8         37 -1.05905516E-03                    1_GWF-(1,26350) -3.78439647E-05                    1_GWF-(1,11430)
        388          8         38 -1.01865407E-03                    1_GWF-(1,26422)  2.71822503E-05                    1_GWF-(1,15941)
        389          8         39 -6.88715783E-04                    1_GWF-(1,26350)  3.85626819E-05                    1_GWF-(1,14800)
        390          8         40 -6.21157542E-04                    1_GWF-(1,20611)  5.61797143E-05                    1_GWF-(1,14801)
        391          8         41 -5.84655189E-04                    1_GWF-(1,20614)  5.90209901E-05                    1_GWF-(1,14800)
        392          8         42  4.85197088E-04                    1_GWF-(1,26420)  6.43639477E-05                    1_GWF-(1,14801)
        393          8         43  6.45684252E-04                    1_GWF-(1,26421)  6.61754373E-05                    1_GWF-(1,14800)
        394          8         44  5.53528394E-04                    1_GWF-(1,26348)  6.86500987E-05                    1_GWF-(1,14801)
        395          8         45  5.32341848E-04                    1_GWF-(1,26218)  6.23821547E-05                    1_GWF-(1,14800)
        396          8         46 -3.94993928E-04                    1_GWF-(1,20973)  6.46027393E-05                    1_GWF-(1,14801)
        397          8         47  3.51135097E-04                    1_GWF-(1,26580)  5.99690862E-05                    1_GWF-(1,14800)
        398          8         48  3.15518449E-04                    1_GWF-(1,26397)  5.29031017E-05                    1_GWF-(1,14801)
        399          8         49  2.68977857E-04                    1_GWF-(1,26539) -4.16900932E-05                    1_GWF-(1,14801)
        400          8         50 -2.06033355E-04                    1_GWF-(1,17786)  4.24983596E-05                    1_GWF-(1,14801)
        401          9          1 -1.85390428E-04                    1_GWF-(1,26538) -4.13093799E-05                    1_GWF-(1,14801)
        402          9          2 -2.64188122E-04                    1_GWF-(1,26218)  4.96111283E-05                    1_GWF-(1,14801)
        403          9          3 -3.17848067E-04                    1_GWF-(1,26589)  5.46176021E-05                    1_GWF-(1,14800)
        404          9          4 -3.26737096E-04                    1_GWF-(1,26486)  5.71577083E-05                    1_GWF-(1,14801)
        405          9          5 -3.56556710E-04                    1_GWF-(1,26544)  5.40035021E-05                    1_GWF-(1,14800)
        406          9          6 -4.07346856E-04                    1_GWF-(1,26218)  5.70720536E-05                    1_GWF-(1,14801)
        407          9          7 -3.61641892E-04                    1_GWF-(1,26348)  5.18774946E-05                    1_GWF-(1,14800)
        408          9          8 -3.38205636E-04                    1_GWF-(1,26486)  4.48640495E-05                    1_GWF-(1,14801)
        409          9          9 -4.51537483E-04                    1_GWF-(1,26487)  3.08789005E-05                    1_GWF-(1,14800)
        410          9         10 -5.40269157E-04                    1_GWF-(1,26486) -2.22149610E-05                    1_GWF-(1,11430)
        411          9         11  5.43006043E-04                    1_GWF-(1,26486)  2.71762558E-05                    1_GWF-(1,14801)
        412          9         12  4.30251513E-04                    1_GWF-(1,26487)  3.37259977E-05                    1_GWF-(1,14800)
        413          9         13  3.58980472E-04                    1_GWF-(1,26350)  3.03720811E-05                    1_GWF-(1,14801)
        414          9         14  4.59990306E-04                    1_GWF-(1,26422)  2.24532241E-05                    1_GWF-(1,14800)
        415          9         15  4.12969996E-04                    1_GWF-(1,26350) -1.33332664E-05                    1_GWF-(1,15940)
        416          9         16  4.08337137E-04                    1_GWF-(1,26422) -1.63466373E-05                    1_GWF-(1,11430)
        417          9         17 -2.95429269E-04                    1_GWF-(1,26623)  1.41903148E-05                    1_GWF-(1,14800)
        418          9         18 -3.13477781E-04                    1_GWF-(1,26622)  1.73540625E-05                    1_GWF-(1,14801)
        419          9         19  3.78512822E-04                    1_GWF-(1,26622) -1.19976811E-05                    1_GWF-(1,11430)
        420          9         20  3.76094193E-04                    1_GWF-(1,26649)  7.44386087E-06                    1_GWF-(1,14800)
        421          9         21 -3.09896874E-04                    1_GWF-(1,26350)  1.71488562E-05                    1_GWF-(1,14801)
        422          9         22 -3.47241835E-04                    1_GWF-(1,26422)  2.09397846E-05                    1_GWF-(1,14800)
        423          9         23 -2.71111654E-04                    1_GWF-(1,26350)  2.56304252E-05                    1_GWF-(1,14801)
        424          9         24 -1.82032803E-04                    1_GWF-(1,26588)  2.73135701E-05                    1_GWF-(1,14800)
        425          9         25 -2.05858691E-04                    1_GWF-(1,26543)  2.49625011E-05                    1_GWF-(1,14801)
        426          9         26 -2.06073362E-04                    1_GWF-(1,26588) -2.22984984E-05                    1_GWF-(1,14801)
        427          9         27 -1.63077125E-04                    1_GWF-(1,26589) -1.62514096E-05                    1_GWF-(1,14800)
        428          9         28 -2.26356807E-04                    1_GWF-(1,26588) -1.08283069E-05                    1_GWF-(1,11430)
        429          9         29 -2.46294848E-04                    1_GWF-(1,26543) -6.11500008E-06                    1_GWF-(1,14801)
        430          9         30 -1.87164085E-04                    1_GWF-(1,26588)  1.43653881E-05                    1_GWF-(1,14801)
        431          9         31  2.14024589E-04                    1_GWF-(1,26588)  1.74174984E-05                    1_GWF-(1,14800)
        432          9         32  1.70385347E-04                    1_GWF-(1,26543)  1.71231218E-05                    1_GWF-(1,14801)
        433          9         33  8.29855027E-05                    1_GWF-(1,26398)  1.41194284E-05                    1_GWF-(1,14800)
        434          9         34  1.03025270E-04                    1_GWF-(1,20914) -1.34084364E-05                    1_GWF-(1,14800)
        435          9         35  8.69994586E-05                    1_GWF-(1,20922) -1.45211250E-05                    1_GWF-(1,14801)
        436          9         36  1.30821883E-04                    1_GWF-(1,26218) -1.33547714E-05                    1_GWF-(1,14800)
        437          9         37 -1.10527663E-04                    1_GWF-(1,20559) -1.31009705E-05                    1_GWF-(1,14801)
        438          9         38 -1.29285671E-04                    1_GWF-(1,20227) -1.30291218E-05                    1_GWF-(1,14800)
        439          9         39 -1.08487849E-04                    1_GWF-(1,20225) -1.29712388E-05                    1_GWF-(1,14801)
        440          9         40 -1.00960304E-04                    1_GWF-(1,26674) -1.23310853E-05                    1_GWF-(1,14800)
        441          9         41 -8.61177174E-05                    1_GWF-(1,19942) -1.21176787E-05                    1_GWF-(1,14801)
        442          9         42 -1.25093276E-04                    1_GWF-(1,26217) -1.05367851E-05                    1_GWF-(1,14800)
        443          9         43 -1.23490302E-04                    1_GWF-(1,26218) -6.90842767E-06                    1_GWF-(1,14801)
        444          9         44 -1.16857071E-04                    1_GWF-(1,26665)  5.90838167E-06                    1_GWF-(1,11430)
        445          9         45  1.72770254E-04                    1_GWF-(1,26665) -9.92591501E-06                    1_GWF-(1,14800)
        446          9         46  1.51153447E-04                    1_GWF-(1,26666) -1.33306096E-05                    1_GWF-(1,14801)
        447          9         47  1.15163879E-04                    1_GWF-(1,26665)  1.18412969E-05                    1_GWF-(1,14801)
        448          9         48  1.42164056E-04                    1_GWF-(1,26217) -1.35604009E-05                    1_GWF-(1,14801)
        449          9         49  1.59231991E-04                    1_GWF-(1,26218) -1.26158587E-05                    1_GWF-(1,14800)
        450          9         50  1.29315523E-04                    1_GWF-(1,26217) -1.33996286E-05                    1_GWF-(1,14801)
        451         10          1 -1.26921492E-04                    1_GWF-(1,26217) -1.15206737E-05                    1_GWF-(1,14800)
        452         10          2 -1.36244139E-04                    1_GWF-(1,26218) -1.01716389E-05                    1_GWF-(1,14801)
        453         10          3  1.27424084E-04                    1_GWF-(1,26588)  4.64566006E-06                    1_GWF-(1,11430)
        454         10          4  1.32056751E-04                    1_GWF-(1,26543) -3.82607424E-06                    1_GWF-(1,14800)
        455         10          5  1.15618549E-04                    1_GWF-(1,26623) -9.71114776E-06                    1_GWF-(1,14801)
        456         10          6  1.01317269E-04                    1_GWF-(1,26622) -1.10938205E-05                    1_GWF-(1,14800)
        457         10          7 -8.24197960E-05                    1_GWF-(1,20218) -1.09741912E-05                    1_GWF-(1,14801)
        458         10          8  9.73464835E-05                    1_GWF-(1,26218) -8.55222905E-06                    1_GWF-(1,14800)
        459         10          9 -9.67580351E-05                    1_GWF-(1,26665) -5.13097829E-06                    1_GWF-(1,14801)
        460         10         10  8.85719004E-05                    1_GWF-(1,26665)  1.76961348E-06                     1_GWF-(1,9290)
        461         10         11  9.44188063E-05                    1_GWF-(1,26666) -4.76541140E-06                    1_GWF-(1,14800)
        462         10         12  8.10306854E-05                    1_GWF-(1,26665) -8.18946747E-06                    1_GWF-(1,14801)
[...]
        549         11         49  1.75234895E-05                    1_GWF-(1,26218) -1.32543416E-06                    1_GWF-(1,14800)
        550         11         50 -1.44029874E-05                    1_GWF-(1,26622) -9.56794448E-07                    1_GWF-(1,14801)
        551         12          1  1.86654393E-05                    1_GWF-(1,26487) -8.69134315E-07                    1_GWF-(1,14800)
        552         12          2  1.72416536E-05                    1_GWF-(1,26486) -4.94603305E-07                    1_GWF-(1,11430)
        553         12          3  1.51802532E-05                    1_GWF-(1,20915)  9.05140802E-07                    1_GWF-(1,11430)
        554         12          4 -1.33500491E-05                    1_GWF-(1,26487) -1.02866492E-06                    1_GWF-(1,14800)
        555         12          5 -8.84215992E-06                    1_GWF-(1,26420) -1.24841009E-06                    1_GWF-(1,14801)
        556         12          6 -1.14356384E-05                    1_GWF-(1,20915) -1.18307175E-06                    1_GWF-(1,14800)
        557         12          7 -1.08395927E-05                    1_GWF-(1,20227) -1.33277424E-06                    1_GWF-(1,14801)
        558         12          8  1.24643816E-05                    1_GWF-(1,26218) -1.26824117E-06                    1_GWF-(1,14800)
        559         12          9 -1.09213080E-05                    1_GWF-(1,26622) -9.60791061E-07                    1_GWF-(1,14801)
        560         12         10 -1.45461001E-05                    1_GWF-(1,26623) -6.63467142E-07                    1_GWF-(1,11430)
        561         12         11 -1.16457218E-05                    1_GWF-(1,26622) -4.73309756E-07                    1_GWF-(1,14800)
        562         12         12  1.06811516E-05                    1_GWF-(1,26622) -9.90116653E-07                    1_GWF-(1,14801)
        563         12         13 -9.38269261E-06                    1_GWF-(1,26420) -9.96668481E-07                    1_GWF-(1,14800)
        564         12         14  7.98485117E-06                    1_GWF-(1,26648) -1.01296573E-06                    1_GWF-(1,14801)
        565         12         15  1.04346715E-05                    1_GWF-(1,26665) -9.67531400E-07                    1_GWF-(1,14800)
        566         12         16  1.45602294E-05                    1_GWF-(1,26666) -5.61488670E-07                    1_GWF-(1,11430)
        567         12         17  1.57299580E-05                    1_GWF-(1,26665) -2.66100475E-07                    1_GWF-(1,11430)
        568         12         18 -1.47388966E-05                    1_GWF-(1,26665)  7.52652063E-07                    1_GWF-(1,11430)
        569         12         19 -1.10987748E-05                    1_GWF-(1,26666)  1.01277430E-06                    1_GWF-(1,14800)
        570         12         20 -1.39624699E-05                    1_GWF-(1,26543)  1.01742129E-06                    1_GWF-(1,14801)
        571         12         21 -1.33969148E-05                    1_GWF-(1,26588) -9.72859005E-07                    1_GWF-(1,14801)
        572         12         22  1.19171013E-05                    1_GWF-(1,26588) -5.59031549E-07                    1_GWF-(1,14800)
        573         12         23  1.20784772E-05                    1_GWF-(1,26543) -4.55898304E-07                    1_GWF-(1,11430)
        574         12         24  1.09854414E-05                    1_GWF-(1,26588)  8.42713416E-07                    1_GWF-(1,11430)
        575         12         25  9.16351856E-06                    1_GWF-(1,26649)  9.58447548E-07                    1_GWF-(1,14801)
        576         12         26  1.19636374E-05                    1_GWF-(1,26588)  1.22130668E-06                    1_GWF-(1,14800)
        577         12         27  1.04384203E-05                    1_GWF-(1,26543)  1.32492218E-06                    1_GWF-(1,14801)
        578         12         28  6.33222597E-06                    1_GWF-(1,26586)  1.24130960E-06                    1_GWF-(1,14800)
        579         12         29  7.87241596E-06                    1_GWF-(1,20216)  1.39848090E-06                    1_GWF-(1,14801)
        580         12         30  7.23827808E-06                    1_GWF-(1,20514)  1.34424027E-06                    1_GWF-(1,14800)
        581         12         31 -8.51689021E-06                    1_GWF-(1,26585)  1.23346027E-06                    1_GWF-(1,14801)
        582         12         32 -1.22517236E-05                    1_GWF-(1,26622)  7.79210698E-07                    1_GWF-(1,14800)
        583         12         33 -1.22180489E-05                    1_GWF-(1,26649)  6.06518242E-07                    1_GWF-(1,11430)
        584         12         34 -1.14219603E-05                    1_GWF-(1,26487)  7.19166271E-07                    1_GWF-(1,14801)
        585         12         35 -9.56830193E-06                    1_GWF-(1,26420)  1.01866391E-06                    1_GWF-(1,14800)
        586         12         36 -9.17056875E-06                    1_GWF-(1,20230)  1.17613966E-06                    1_GWF-(1,14801)
        587         12         37 -8.55505893E-06                    1_GWF-(1,26345)  1.17125623E-06                    1_GWF-(1,14800)
        588         12         38 -8.43446302E-06                    1_GWF-(1,26218)  1.17165727E-06                    1_GWF-(1,14801)
        589         12         39 -9.67355094E-06                    1_GWF-(1,20590)  1.08560113E-06                    1_GWF-(1,14800)
        590         12         40 -8.24357789E-06                    1_GWF-(1,20592)  1.02933759E-06                    1_GWF-(1,14801)
        591         12         41 -8.66078610E-06                    1_GWF-(1,26623)  6.16621130E-07                    1_GWF-(1,14800)
        592         12         42  1.03964121E-05                    1_GWF-(1,26487)  5.29731169E-07                    1_GWF-(1,11430)
        593         12         43  1.05955169E-05                    1_GWF-(1,26420)  7.48247243E-07                    1_GWF-(1,14801)
        594         12         44  8.45521785E-06                    1_GWF-(1,26487)  8.94916800E-07                    1_GWF-(1,14800)
        595         12         45  8.10572843E-06                    1_GWF-(1,26543)  8.17847543E-07                    1_GWF-(1,14801)
        596         12         46  8.15923184E-06                    1_GWF-(1,26544)  6.34136112E-07                    1_GWF-(1,14800)
        597         12         47  7.27834482E-06                    1_GWF-(1,26486)  5.24855982E-07                    1_GWF-(1,14801)
        598         12         48 -7.94751719E-06                    1_GWF-(1,26422)  3.82511212E-07                    1_GWF-(1,14800)
        599         12         49 -5.98613025E-06                    1_GWF-(1,26350) -3.90109994E-07                    1_GWF-(1,11430)
        600         12         50  6.54328309E-06                    1_GWF-(1,26350)  2.12667026E-07                    1_GWF-(1,10651)
        601         13          1 -7.99268682E-06                    1_GWF-(1,26350)  2.66874177E-07                    1_GWF-(1,10652)
        602         13          2 -8.51672726E-06                    1_GWF-(1,26422)  2.29593296E-07                    1_GWF-(1,14801)
        603         13          3  8.05832250E-06                    1_GWF-(1,26422)  1.92985655E-07                    1_GWF-(1,14800)
        604         13          4  6.41836986E-06                    1_GWF-(1,26350)  1.62322958E-07                    1_GWF-(1,14799)
        605         13          5 -6.68874642E-06                    1_GWF-(1,26542)  2.26914902E-07                    1_GWF-(1,14801)
        606         13          6 -8.59484179E-06                    1_GWF-(1,26543)  3.21675421E-07                    1_GWF-(1,14800)
        607         13          7 -9.19282485E-06                    1_GWF-(1,26588)  3.07234883E-07                    1_GWF-(1,14801)
        608         13          8  7.85036508E-06                    1_GWF-(1,26588)  1.43306230E-07                    1_GWF-(1,14799)
        609         13          9  5.45479277E-06                    1_GWF-(1,26589)  2.00664526E-07                    1_GWF-(1,11430)
        610         13         10  5.68119323E-06                    1_GWF-(1,26623)  3.40345551E-07                    1_GWF-(1,14801)
        611         13         11  5.51541490E-06                    1_GWF-(1,26622)  3.05320398E-07                    1_GWF-(1,14800)
        612         13         12 -5.74320725E-06                    1_GWF-(1,26622)  1.90399468E-07                    1_GWF-(1,11430)
        613         13         13 -6.40261102E-06                    1_GWF-(1,26649)  1.09137134E-07                    1_GWF-(1,14801)
        614         13         14  4.55811188E-06                    1_GWF-(1,26350)  2.41924053E-07                    1_GWF-(1,14800)
        615         13         15  4.34896827E-06                    1_GWF-(1,26344)  3.43200025E-07                    1_GWF-(1,14801)
        616         13         16  4.53311418E-06                    1_GWF-(1,26487)  4.16114401E-07                    1_GWF-(1,14800)
        617         13         17  4.57519932E-06                    1_GWF-(1,26486)  4.20453136E-07                    1_GWF-(1,14801)
        618         13         18  4.51738962E-06                    1_GWF-(1,26487)  2.42319967E-07                    1_GWF-(1,14800)
        619         13         19 -4.30491429E-06                    1_GWF-(1,26487)  1.20863579E-07                    1_GWF-(1,14800)
        620         13         20 -4.68728777E-06                    1_GWF-(1,26486)  3.66033104E-07                    1_GWF-(1,14801)
        621         13         21 -3.94834559E-06                    1_GWF-(1,26487)  4.52553705E-07                    1_GWF-(1,14800)
        622         13         22 -2.98258245E-06                    1_GWF-(1,20230)  4.47620687E-07                    1_GWF-(1,14801)
        623         13         23  3.11624443E-06                    1_GWF-(1,26666)  2.84471829E-07                    1_GWF-(1,14800)
        624         13         24 -3.99543077E-06                    1_GWF-(1,26543)  1.95128984E-07                    1_GWF-(1,11430)
        625         13         25 -4.28998354E-06                    1_GWF-(1,26665)  2.52030158E-07                    1_GWF-(1,14801)
        626         13         26 -3.44028507E-06                    1_GWF-(1,26623) -3.84754359E-07                    1_GWF-(1,14801)
        627         13         27 -2.70407766E-06                    1_GWF-(1,26665) -4.21422785E-07                    1_GWF-(1,14800)
        628         13         28 -2.11038110E-06                    1_GWF-(1,26623) -4.50612049E-07                    1_GWF-(1,14801)
        629         13         29  1.97250565E-06                    1_GWF-(1,26623) -4.32751685E-07                    1_GWF-(1,14800)
        630         13         30 -1.81772932E-06                    1_GWF-(1,25728) -3.82397367E-07                    1_GWF-(1,14801)
        631         13         31  1.63900396E-06                    1_GWF-(1,26543)  3.59143783E-07                    1_GWF-(1,14801)
        632         13         32  1.50559519E-06                    1_GWF-(1,20223)  2.87483254E-07                    1_GWF-(1,14800)
        633         13         33  1.45048281E-06                    1_GWF-(1,26623)  2.38872268E-07                    1_GWF-(1,14801)
        634         13         34  1.56709305E-06                    1_GWF-(1,20914) -2.13562290E-07                    1_GWF-(1,14801)
        635         13         35  1.76749126E-06                    1_GWF-(1,26588) -1.77898996E-07                    1_GWF-(1,14800)
        636         13         36  2.24196607E-06                    1_GWF-(1,26543)  8.14607474E-08                    1_GWF-(1,11430)
        637         13         37  2.25540374E-06                    1_GWF-(1,26487) -1.03655965E-07                    1_GWF-(1,11430)
        638         13         38 -2.19443436E-06                    1_GWF-(1,26588) -1.64459293E-07                    1_GWF-(1,14800)
        639         13         39 -1.59215895E-06                    1_GWF-(1,20228) -1.88990994E-07                    1_GWF-(1,14801)
        640         13         40 -1.25086250E-06                    1_GWF-(1,20207) -1.81738641E-07                    1_GWF-(1,14800)
        641         13         41 -1.30644861E-06                    1_GWF-(1,19975) -1.84109282E-07                    1_GWF-(1,14801)
        642         13         42  1.76384683E-06                    1_GWF-(1,26622) -1.64124185E-07                    1_GWF-(1,14800)
        643         13         43  2.09760228E-06                    1_GWF-(1,26649) -1.03955059E-07                    1_GWF-(1,11430)
        644         13         44  2.06837357E-06                    1_GWF-(1,26622) -9.08746315E-08                    1_GWF-(1,14801)
        645         13         45  2.09837082E-06                    1_GWF-(1,26649) -2.01083519E-07                    1_GWF-(1,14800)
        646         13         46 -1.77620296E-06                    1_GWF-(1,26649) -2.22868554E-07                    1_GWF-(1,14801)
        647         13         47  1.92551722E-06                    1_GWF-(1,26420) -1.71345274E-07                    1_GWF-(1,14800)
        648         13         48  2.12821322E-06                    1_GWF-(1,26487)  1.16687220E-07                    1_GWF-(1,11430)
        649         13         49  2.18156269E-06                    1_GWF-(1,26420) -6.25606083E-08                    1_GWF-(1,11430)
        650         13         50 -2.03238151E-06                    1_GWF-(1,26623) -1.31711513E-07                    1_GWF-(1,14800)
        651         14          1  2.06411652E-06                    1_GWF-(1,26623) -1.71712343E-07                    1_GWF-(1,14801)
        652         14          2  2.29540488E-06                    1_GWF-(1,26487)  5.35875238E-08                    1_GWF-(1,11430)
        653         14          3 -1.87697198E-06                    1_GWF-(1,26487) -1.17063121E-07                    1_GWF-(1,11430)
        654         14          4 -1.58428741E-06                    1_GWF-(1,26420) -1.96563272E-07                    1_GWF-(1,14801)
        655         14          5  1.68780871E-06                    1_GWF-(1,26649) -2.30928763E-07                    1_GWF-(1,14800)
        656         14          6 -1.67844233E-06                    1_GWF-(1,26649) -1.65436968E-07                    1_GWF-(1,14801)
        657         14          7  1.53648335E-06                    1_GWF-(1,26649)  2.27953551E-08                     1_GWF-(1,8949)
        658         14          8 -1.59871955E-06                    1_GWF-(1,26649) -1.37523189E-07                    1_GWF-(1,14800)
        659         14          9 -1.42366615E-06                    1_GWF-(1,26622) -1.62178742E-07                    1_GWF-(1,14801)
        660         14         10 -1.14498642E-06                    1_GWF-(1,26623) -1.31480388E-07                    1_GWF-(1,14800)
        661         14         11  1.08453756E-06                    1_GWF-(1,26674) -1.39999047E-07                    1_GWF-(1,14801)
        662         14         12  8.46964390E-07                    1_GWF-(1,20228) -1.24298845E-07                    1_GWF-(1,14800)
        663         15          1 -1.03943688E-06                    1_GWF-(1,26663) -1.09822026E-07                    1_GWF-(1,14801)
        664         15          2 -9.98298027E-07                    1_GWF-(1,26487) -6.24746197E-08                    1_GWF-(1,14800)
        665         16          1  8.83582776E-07                    1_GWF-(1,26665) -4.93414086E-08                    1_GWF-(1,14801)
 --------------------------------------------------------------------------------------------------------------------------------------


 UBDSV1 SAVING     FLOW-JA-FACE ON UNIT   1020 AT TIME STEP      1, STRESS PERIOD      1
 UBDSV06 SAVING       DATA-SPDIS IN MODEL ML               PACKAGE NPF             CONNECTED TO MODEL ML               PACKAGE NPF              ON UNIT   1020 AT TIME STEP      1, STRESS PERIOD      1
 UBDSV06 SAVING              WEL IN MODEL ML               PACKAGE ML              CONNECTED TO MODEL ML               PACKAGE WEL_0            ON UNIT   1020 AT TIME STEP      1, STRESS PERIOD      1
 UBDSV06 SAVING              DRN IN MODEL ML               PACKAGE ML              CONNECTED TO MODEL ML               PACKAGE DRN_0            ON UNIT   1020 AT TIME STEP      1, STRESS PERIOD      1
 UBDSV06 SAVING              RIV IN MODEL ML               PACKAGE ML              CONNECTED TO MODEL ML               PACKAGE RIV_0            ON UNIT   1020 AT TIME STEP      1, STRESS PERIOD      1
 UBDSV06 SAVING              GHB IN MODEL ML               PACKAGE ML              CONNECTED TO MODEL ML               PACKAGE GHB_0            ON UNIT   1020 AT TIME STEP      1, STRESS PERIOD      1
 UBDSV06 SAVING              RCH IN MODEL ML               PACKAGE ML              CONNECTED TO MODEL ML               PACKAGE RCHA_0           ON UNIT   1020 AT TIME STEP      1, STRESS PERIOD      1

 HEAD WILL BE SAVED ON UNIT 1021 AT END OF TIME STEP    1, STRESS PERIOD    1


  VOLUME BUDGET FOR ENTIRE MODEL AT END OF TIME STEP    1, STRESS PERIOD   1
  ---------------------------------------------------------------------------------------------------

     CUMULATIVE VOLUME      L**3       RATES FOR THIS TIME STEP      L**3/T          PACKAGE NAME    
     ------------------                 ------------------------                     ----------------

           IN:                                      IN:
           ---                                      ---
                 WEL =           0.0000                   WEL =           0.0000     WEL_0           
                 DRN =           0.0000                   DRN =           0.0000     DRN_0           
                 RIV =           9.3420                   RIV =           0.9342     RIV_0           
                 GHB =          17.3447                   GHB =           1.7345     GHB_0           
                 RCH =           0.8264                   RCH =       8.2636E-02     RCHA_0          

            TOTAL IN =          27.5130              TOTAL IN =           2.7513

          OUT:                                     OUT:
          ----                                     ----
                 WEL =           0.8421                   WEL =       8.4206E-02     WEL_0           
                 DRN =           2.1450                   DRN =           0.2145     DRN_0           
                 RIV =          24.5151                   RIV =           2.4515     RIV_0           
                 GHB =       1.0778E-02                   GHB =       1.0778E-03     GHB_0           
                 RCH =           0.0000                   RCH =           0.0000     RCHA_0          

           TOTAL OUT =          27.5130             TOTAL OUT =           2.7513

            IN - OUT =      -2.5073E-05              IN - OUT =      -2.5073E-06

 PERCENT DISCREPANCY =          -0.00     PERCENT DISCREPANCY =          -0.00




         TIME SUMMARY AT END OF TIME STEP    1 IN STRESS PERIOD    1
                    SECONDS     MINUTES      HOURS       DAYS        YEARS
                    -----------------------------------------------------------
   TIME STEP LENGTH  10.000     0.16667     2.77778E-03 1.15741E-04 3.16881E-07
 STRESS PERIOD TIME  10.000     0.16667     2.77778E-03 1.15741E-04 3.16881E-07
         TOTAL TIME  10.000     0.16667     2.77778E-03 1.15741E-04 3.16881E-07


end timestep

