                                   MODFLOW 6
                U.S. GEOLOGICAL SURVEY MODULAR HYDROLOGIC MODEL
                          GROUNDWATER FLOW MODEL (GWF)
                            VERSION 6.2.2 07/30/2021

   MODFLOW 6 compiled Jul 31 2021 14:22:53 with IFORT compiler (ver. 19.10.3)

This software has been approved for release by the U.S. Geological 
Survey (USGS). Although the software has been subjected to rigorous 
review, the USGS reserves the right to update the software as needed 
pursuant to further analysis and review. No warranty, expressed or 
implied, is made by the USGS or the U.S. Government as to the 
functionality of the software and related material nor shall the 
fact of release constitute any such warranty. Furthermore, the 
software is released on condition that neither the USGS nor the U.S. 
Government shall be held liable for any damages resulting from its 
authorized or unauthorized use. Also refer to the USGS Water 
Resources Software User Rights Notice for complete use, copyright, 
and distribution information.


System command used to initiate simulation:
mf6

MODFLOW was compiled using uniform precision.

Real Variables
  KIND: 8
  TINY (smallest non-zero value):    2.225074-308
  HUGE (largest value):    1.797693+308
  PRECISION: 15
  BIT SIZE: 64

Integer Variables
  KIND: 4
  HUGE (largest value): 2147483647
  BIT SIZE: 32

Long Integer Variables
  KIND: 8
  HUGE (largest value): 9223372036854775807
  BIT SIZE: 64

Logical Variables
  KIND: 4
  BIT SIZE: 32
 

 OPENED ./ml.disv
 FILE TYPE:DISV6                  UNIT 1005   STATUS:OLD                 
 FORMAT:FORMATTED              ACCESS:SEQUENTIAL          
 ACTION:READ                


 OPENED ./ml.ic
 FILE TYPE:IC6                    UNIT 1006   STATUS:OLD                 
 FORMAT:FORMATTED              ACCESS:SEQUENTIAL          
 ACTION:READ                


 OPENED ./ml.npf
 FILE TYPE:NPF6                   UNIT 1007   STATUS:OLD                 
 FORMAT:FORMATTED              ACCESS:SEQUENTIAL          
 ACTION:READ                


 OPENED ./ml.ghb
 FILE TYPE:GHB6                   UNIT 1008   STATUS:OLD                 
 FORMAT:FORMATTED              ACCESS:SEQUENTIAL          
 ACTION:READ                


 OPENED ./ml.rcha
 FILE TYPE:RCH6                   UNIT 1009   STATUS:OLD                 
 FORMAT:FORMATTED              ACCESS:SEQUENTIAL          
 ACTION:READ                


 OPENED ./ml.obs
 FILE TYPE:OBS6                   UNIT 1010   STATUS:OLD                 
 FORMAT:FORMATTED              ACCESS:SEQUENTIAL          
 ACTION:READ                


 OPENED ./ml.oc
 FILE TYPE:OC6                    UNIT 1011   STATUS:OLD                 
 FORMAT:FORMATTED              ACCESS:SEQUENTIAL          
 ACTION:READ                


 OPENED ml.wel
 FILE TYPE:WEL6                   UNIT 1012   STATUS:OLD                 
 FORMAT:FORMATTED              ACCESS:SEQUENTIAL          
 ACTION:READ                


 OPENED ml.drn
 FILE TYPE:DRN6                   UNIT 1013   STATUS:OLD                 
 FORMAT:FORMATTED              ACCESS:SEQUENTIAL          
 ACTION:READ                


 OPENED ml.riv
 FILE TYPE:RIV6                   UNIT 1014   STATUS:OLD                 
 FORMAT:FORMATTED              ACCESS:SEQUENTIAL          
 ACTION:READ                


 DISV -- VERTEX GRID DISCRETIZATION PACKAGE, VERSION 1 : 12/23/2015 - INPUT READ FROM UNIT 1005


 # File generated by Flopy version 3.3.5 on 04/25/2022 at 00:16:16.

 PROCESSING DISCRETIZATION OPTIONS
    MODEL LENGTH UNIT IS METERS
    XORIGIN SPECIFIED AS     405575.681000000    
    YORIGIN SPECIFIED AS     6423306.54000000    
 END OF DISCRETIZATION OPTIONS

 PROCESSING DISCRETIZATION DIMENSIONS
   NLAY = 1
   NCPL = 26674
   NVERT = 27090
 END OF DISCRETIZATION DIMENSIONS

 PROCESSING GRIDDATA
 END PROCESSING GRIDDATA

 PROCESSING VERTICES
   SUCCESSFULLY READ 27090 (X,Y) COORDINATES
   MINIMUM X COORDINATE =     405575.681000000    
   MAXIMUM X COORDINATE =     413975.681000000    
   MINIMUM Y COORDINATE =     6423306.54000000    
   MAXIMUM Y COORDINATE =     6432506.54000000    
 END PROCESSING VERTICES

 PROCESSING CELL2D
   SUCCESSFULLY READ 26674 CELL2D INFORMATION ENTRIES
   MINIMUM X CELL CENTER =     405675.681000000    
   MAXIMUM X CELL CENTER =     413875.681000000    
   MINIMUM Y CELL CENTER =     6423406.54000000    
   MAXIMUM Y CELL CENTER =     6432406.54000000    
   MAXIMUM NUMBER OF CELL2D VERTICES IS 6 FOR CELL 208
 END PROCESSING VERTICES

 NPF -- NODE PROPERTY FLOW PACKAGE, VERSION 1, 3/30/2015 INPUT READ FROM UNIT 1007


 # File generated by Flopy version 3.3.5 on 04/25/2022 at 00:16:19.
 PROCESSING NPF OPTIONS
    CELL-BY-CELL FLOW INFORMATION WILL BE SAVED TO BINARY FILE WHENEVER ICBCFL IS NOT ZERO.
    SPECIFIC DISCHARGE WILL BE CALCULATED AT CELL CENTERS AND WRITTEN TO DATA-SPDIS IN BUDGET FILE WHEN REQUESTED.
 END OF NPF OPTIONS

 WEL   -- WEL PACKAGE, VERSION 8, 2/22/2014 INPUT READ FROM UNIT 1012
 # File generated by Flopy version 3.3.5 on 04/25/2022 at 00:16:19.

 PROCESSING WEL OPTIONS
    WEL BOUNDARIES HAVE NAMES IN LAST COLUMN.
    FLOWS WILL BE SAVED TO BUDGET FILE SPECIFIED IN OUTPUT CONTROL
 END OF WEL OPTIONS

 PROCESSING WEL DIMENSIONS
    MAXBOUND =       9
 END OF WEL DIMENSIONS

 DRN   -- DRN PACKAGE, VERSION 8, 2/22/2014 INPUT READ FROM UNIT 1013
 # File generated by Flopy version 3.3.5 on 04/25/2022 at 00:16:19.

 PROCESSING DRN OPTIONS
    DRN BOUNDARIES HAVE NAMES IN LAST COLUMN.
    FLOWS WILL BE SAVED TO BUDGET FILE SPECIFIED IN OUTPUT CONTROL

 OPENED ml.drn.obs
 FILE TYPE:OBS   UNIT 1016   STATUS:OLD                 
 FORMAT:FORMATTED              ACCESS:SEQUENTIAL          
 ACTION:READ                

 END OF DRN OPTIONS

 PROCESSING DRN DIMENSIONS
    MAXBOUND =     133
 END OF DRN DIMENSIONS

 RIV   -- RIV PACKAGE, VERSION 8, 2/22/2014 INPUT READ FROM UNIT 1014
 # File generated by Flopy version 3.3.5 on 04/25/2022 at 00:16:19.

 PROCESSING RIV OPTIONS
    AUXILIARY RIV VARIABLE: FID             
    RIV BOUNDARIES HAVE NAMES IN LAST COLUMN.
    FLOWS WILL BE SAVED TO BUDGET FILE SPECIFIED IN OUTPUT CONTROL
 END OF RIV OPTIONS

 PROCESSING RIV DIMENSIONS
    MAXBOUND =     794
 END OF RIV DIMENSIONS

 GHB   -- GHB PACKAGE, VERSION 8, 2/22/2014 INPUT READ FROM UNIT 1008
 # File generated by Flopy version 3.3.5 on 04/25/2022 at 00:16:19.

 PROCESSING GHB OPTIONS
    GHB BOUNDARIES HAVE NAMES IN LAST COLUMN.
    FLOWS WILL BE SAVED TO BUDGET FILE SPECIFIED IN OUTPUT CONTROL
 END OF GHB OPTIONS

 PROCESSING GHB DIMENSIONS
    MAXBOUND =     153
 END OF GHB DIMENSIONS

 RCH   -- RCH PACKAGE, VERSION 8, 2/22/2014 INPUT READ FROM UNIT 1009
 # File generated by Flopy version 3.3.5 on 04/25/2022 at 00:16:19.

 PROCESSING RCH OPTIONS
    RECHARGE INPUT WILL BE READ AS ARRAY(S).
    FLOWS WILL BE SAVED TO BUDGET FILE SPECIFIED IN OUTPUT CONTROL
 END OF RCH OPTIONS

 IC -- INITIAL CONDITIONS PACKAGE, VERSION 8, 3/28/2015 INPUT READ FROM UNIT 1006
 # File generated by Flopy version 3.3.5 on 04/25/2022 at 00:16:19.
 PROCESSING GRIDDATA

     INITIAL HEAD =   15.00000    
 END PROCESSING GRIDDATA
 PROCESSING GRIDDATA

                ICELLTYPE = 0

 OPENED ../com_ext/k.txt
 FILE TYPE:OPEN/CLOSE   UNIT 1017   STATUS:OLD                 
 FORMAT:FORMATTED              ACCESS:SEQUENTIAL          
 ACTION:READ                

 K33 not provided.  Assuming K33 = K.
 K22 not provided.  Assuming K22 = K.
 END PROCESSING GRIDDATA

The observation utility is active for "ML"
 # File generated by Flopy version 3.3.5 on 04/25/2022 at 00:16:19.

Processing observation options:

Text output number of digits of precision set to: 10
The PRINT_INPUT option has been specified.


 OBSERVATIONS READ FROM FILE "ml.obs"
 ----------------------------------------------------------------------------------------------------------------------------------------------------------------------------------------------------------------------------
 NAME                                     TYPE                                       TIME         LOCATION DATA                              OUTPUT FILENAME                                                                 
 ----------------------------------------------------------------------------------------------------------------------------------------------------------------------------------------------------------------------------
 PRG                                      CONTINUOUS  HEAD                           ALL TIMES    "1 16523"                                  sim/hds.csv                                                                     
 P8                                       CONTINUOUS  HEAD                           ALL TIMES    "1 10323"                                  sim/hds.csv                                                                     
 P24                                      CONTINUOUS  HEAD                           ALL TIMES    "1 9594"                                   sim/hds.csv                                                                     
 P25                                      CONTINUOUS  HEAD                           ALL TIMES    "1 13966"                                  sim/hds.csv                                                                     
 P32                                      CONTINUOUS  HEAD                           ALL TIMES    "1 15787"                                  sim/hds.csv                                                                     
 P33                                      CONTINUOUS  HEAD                           ALL TIMES    "1 15825"                                  sim/hds.csv                                                                     
 PF                                       CONTINUOUS  HEAD                           ALL TIMES    "1 21048"                                  sim/hds.csv                                                                     
 PH                                       CONTINUOUS  HEAD                           ALL TIMES    "1 20781"                                  sim/hds.csv                                                                     
 PZHM1                                    CONTINUOUS  HEAD                           ALL TIMES    "1 14521"                                  sim/hds.csv                                                                     
 P26                                      CONTINUOUS  HEAD                           ALL TIMES    "1 13141"                                  sim/hds.csv                                                                     
 P27                                      CONTINUOUS  HEAD                           ALL TIMES    "1 8465"                                   sim/hds.csv                                                                     
 P28                                      CONTINUOUS  HEAD                           ALL TIMES    "1 8924"                                   sim/hds.csv                                                                     
 P29                                      CONTINUOUS  HEAD                           ALL TIMES    "1 4524"                                   sim/hds.csv                                                                     
 P30                                      CONTINUOUS  HEAD                           ALL TIMES    "1 5255"                                   sim/hds.csv                                                                     
 R20                                      CONTINUOUS  HEAD                           ALL TIMES    "1 10676"                                  sim/hds.csv                                                                     
 R21                                      CONTINUOUS  HEAD                           ALL TIMES    "1 10403"                                  sim/hds.csv                                                                     
 P34                                      CONTINUOUS  HEAD                           ALL TIMES    "1 15131"                                  sim/hds.csv                                                                     
 P37                                      CONTINUOUS  HEAD                           ALL TIMES    "1 15755"                                  sim/hds.csv                                                                     
 P38                                      CONTINUOUS  HEAD                           ALL TIMES    "1 15045"                                  sim/hds.csv                                                                     
 P39                                      CONTINUOUS  HEAD                           ALL TIMES    "1 9637"                                   sim/hds.csv                                                                     
 P40                                      CONTINUOUS  HEAD                           ALL TIMES    "1 9312"                                   sim/hds.csv                                                                     
 AP1                                      CONTINUOUS  HEAD                           ALL TIMES    "1 9702"                                   sim/hds.csv                                                                     
 RCK1                                     CONTINUOUS  HEAD                           ALL TIMES    "1 15900"                                  sim/hds.csv                                                                     
 RCK2                                     CONTINUOUS  HEAD                           ALL TIMES    "1 15199"                                  sim/hds.csv                                                                     
 P23                                      CONTINUOUS  HEAD                           ALL TIMES    "1 6409"                                   sim/hds.csv                                                                     
 ----------------------------------------------------------------------------------------------------------------------------------------------------------------------------------------------------------------------------


    BINARY GRID INFORMATION WILL BE WRITTEN TO:
      UNIT NUMBER: 1019
      FILE NAME: /srv/common/ptrack/case_study/pst/ml_10/./ml.disv.grb

 OPENED /srv/common/ptrack/case_study/pst/ml_10/./ml.disv.grb
 FILE TYPE:DATA(BINARY)   UNIT 1019   STATUS:REPLACE             
 FORMAT:UNFORMATTED            ACCESS:STREAM              
 ACTION:READWRITE           

      THE LAST TIME STEP WILL BE PRINTED
      THE LAST TIME STEP WILL BE PRINTED
 # File generated by Flopy version 3.3.5 on 04/25/2022 at 00:16:19.

 PROCESSING OC OPTIONS

    BUDGET INFORMATION WILL BE WRITTEN TO:
      UNIT NUMBER: 1020
      FILE NAME: ml.cbc

 OPENED ml.cbc
 FILE TYPE:DATA(BINARY)   UNIT 1020   STATUS:REPLACE             
 FORMAT:UNFORMATTED            ACCESS:STREAM              
 ACTION:READWRITE           

    HEAD INFORMATION WILL BE WRITTEN TO:
      UNIT NUMBER: 1021
      FILE NAME: ml.hds

 OPENED ml.hds
 FILE TYPE:DATA(BINARY)   UNIT 1021   STATUS:REPLACE             
 FORMAT:UNFORMATTED            ACCESS:STREAM              
 ACTION:READWRITE           

 END OF OC OPTIONS

The observation utility is active for "DRN_0"
 # File generated by Flopy version 3.3.5 on 04/25/2022 at 00:16:19.

Processing observation options:



start timestep kper="1" kstp="1" mode="normal"


 BEGIN READING OUTPUT CONTROL FOR STRESS PERIOD 1
      THE LAST TIME STEP WILL BE SAVED
      THE LAST TIME STEP WILL BE SAVED

 END READING OUTPUT CONTROL FOR STRESS PERIOD 1

 OPENED ext/well_spd_1.txt
 FILE TYPE:OPEN/CLOSE   UNIT 1023   STATUS:OLD                 
 FORMAT:FORMATTED              ACCESS:SEQUENTIAL          
 ACTION:READ                


 OPENED ext/drn_spd_1.txt
 FILE TYPE:OPEN/CLOSE   UNIT 1024   STATUS:OLD                 
 FORMAT:FORMATTED              ACCESS:SEQUENTIAL          
 ACTION:READ                


 OPENED ext/riv_spd_1.txt
 FILE TYPE:OPEN/CLOSE   UNIT 1025   STATUS:OLD                 
 FORMAT:FORMATTED              ACCESS:SEQUENTIAL          
 ACTION:READ                


 OPENED ../com_ext/ghb_spd_1.txt
 FILE TYPE:OPEN/CLOSE   UNIT 1026   STATUS:OLD                 
 FORMAT:FORMATTED              ACCESS:SEQUENTIAL          
 ACTION:READ                


 OPENED ../com_ext/rech_spd_1.txt
 FILE TYPE:OPEN/CLOSE   UNIT 1027   STATUS:OLD                 
 FORMAT:FORMATTED              ACCESS:SEQUENTIAL          
 ACTION:READ                


 SLN_1 INNER ITERATION SUMMARY
 --------------------------------------------------------------------------------------------------------------------------------------
      TOTAL      OUTER      INNER                                                            MAXIMUM                                   
  ITERATION  ITERATION  ITERATION  MAXIMUM CHANGE      MAXIMUM CHANGE MODEL-(CELLID)        RESIDUAL    MAXIMUM RESIDUAL MODEL-(CELLID)
 --------------------------------------------------------------------------------------------------------------------------------------
          1          1          1       183.02334                    1_GWF-(1,26381)       1.9456841                     1_GWF-(1,7788)
          2          1          2       273.13929                    1_GWF-(1,26380)      -1.1320250                    1_GWF-(1,15907)
          3          1          3       157.73529                    1_GWF-(1,26444)      0.86011116                    1_GWF-(1,15907)
          4          1          4       83.467220                    1_GWF-(1,26380)      0.57322491                    1_GWF-(1,15226)
          5          1          5       66.861392                    1_GWF-(1,26520)     -0.37988304                    1_GWF-(1,15221)
          6          1          6       60.588642                    1_GWF-(1,26572)      0.46068599                    1_GWF-(1,15216)
          7          1          7       62.585249                    1_GWF-(1,26648)      0.40557734                    1_GWF-(1,15226)
          8          1          8       53.736720                    1_GWF-(1,26649)     -0.36525576                    1_GWF-(1,15226)
          9          1          9       39.186430                    1_GWF-(1,26589)      0.33240263                    1_GWF-(1,15221)
         10          1         10       32.736702                    1_GWF-(1,26543)     -0.17142236                    1_GWF-(1,15216)
         11          1         11       24.900497                    1_GWF-(1,26544)     -0.15709135                    1_GWF-(1,15226)
         12          1         12       21.044973                    1_GWF-(1,26420)      0.19898971                    1_GWF-(1,15221)
         13          1         13       18.528605                    1_GWF-(1,26422) -6.98460398E-02                    1_GWF-(1,15216)
         14          1         14       13.390658                    1_GWF-(1,26350) -9.25813635E-02                    1_GWF-(1,15221)
         15          1         15       8.6211094                    1_GWF-(1,26218)      0.10003656                    1_GWF-(1,15221)
         16          1         16      -8.2770103                    1_GWF-(1,26622)  4.54259823E-02                    1_GWF-(1,11047)
         17          1         17      -6.5693395                    1_GWF-(1,26623)     -0.11858523                    1_GWF-(1,15221)
         18          1         18      -6.2085510                    1_GWF-(1,26543)      0.12210451                    1_GWF-(1,15221)
         19          1         19      -6.8898062                    1_GWF-(1,26588)  6.14805215E-02                    1_GWF-(1,11152)
         20          1         20       10.412927                    1_GWF-(1,26588)     -0.10811150                    1_GWF-(1,15221)
         21          1         21      -8.3998535                    1_GWF-(1,26588)  6.74602253E-02                    1_GWF-(1,15221)
         22          1         22      -8.7300002                    1_GWF-(1,26543)  7.46639885E-02                    1_GWF-(1,15910)
         23          1         23      -7.6984117                    1_GWF-(1,26544)     -0.11401108                    1_GWF-(1,15221)
         24          1         24      -11.093815                    1_GWF-(1,26486)  5.13902044E-02                    1_GWF-(1,15221)
         25          1         25      -10.313637                    1_GWF-(1,26487)  8.69815464E-02                    1_GWF-(1,15910)
         26          1         26       10.903798                    1_GWF-(1,26487) -9.02039892E-02                    1_GWF-(1,15221)
         27          1         27       10.594144                    1_GWF-(1,26420) -5.25010948E-02                    1_GWF-(1,11203)
         28          1         28       6.3473991                    1_GWF-(1,26487)  6.35651836E-02                    1_GWF-(1,15910)
         29          1         29       4.5270476                    1_GWF-(1,26542) -5.84427426E-02                    1_GWF-(1,15221)
         30          1         30       5.1646748                    1_GWF-(1,26623) -3.40506062E-02                    1_GWF-(1,11050)
         31          1         31       3.8659030                    1_GWF-(1,26586)  4.60881362E-02                    1_GWF-(1,15910)
         32          1         32       3.8999076                    1_GWF-(1,26422) -5.10760749E-02                    1_GWF-(1,11203)
         33          1         33       4.3718924                    1_GWF-(1,26544) -4.38537361E-02                    1_GWF-(1,11200)
         34          1         34       3.9516318                    1_GWF-(1,26665)  2.86446855E-02                    1_GWF-(1,15910)
         35          1         35       3.4994735                    1_GWF-(1,26350) -2.89512980E-02                    1_GWF-(1,15221)
         36          1         36       3.7939864                    1_GWF-(1,26422) -2.45840613E-02                    1_GWF-(1,11200)
         37          1         37      -2.7549485                    1_GWF-(1,26422) -2.39580939E-02                    1_GWF-(1,11152)
         38          1         38      -3.4995069                    1_GWF-(1,26350) -2.82143140E-02                    1_GWF-(1,15216)
         39          1         39      -2.3796357                    1_GWF-(1,26622) -3.54875974E-02                    1_GWF-(1,11206)
         40          1         40      -2.4391916                    1_GWF-(1,26648)  2.75719890E-02                    1_GWF-(1,11108)
         41          1         41      -1.8786290                    1_GWF-(1,26649)  2.93203260E-02                    1_GWF-(1,11159)
         42          1         42      -1.7217403                    1_GWF-(1,26623)  3.61033333E-02                    1_GWF-(1,11197)
         43          1         43      -1.6294145                    1_GWF-(1,26586) -3.20639376E-02                    1_GWF-(1,11206)
         44          1         44      -1.2379810                    1_GWF-(1,26543)  3.95572182E-02                    1_GWF-(1,11206)
         45          1         45      -1.2205571                    1_GWF-(1,26486)  2.39568789E-02                    1_GWF-(1,11201)
         46          1         46       1.0214159                    1_GWF-(1,26649) -2.11751814E-02                    1_GWF-(1,11201)
         47          1         47       1.1800319                    1_GWF-(1,26648) -2.17846177E-02                    1_GWF-(1,12427)
         48          1         48      -1.5672365                    1_GWF-(1,26218)  2.47410085E-02                    1_GWF-(1,11197)
         49          1         49      -1.5975972                    1_GWF-(1,26217) -1.71133840E-02                    1_GWF-(1,11206)
         50          1         50       1.1465343                    1_GWF-(1,26217)  1.33563870E-02                    1_GWF-(1,11206)
         51          2          1      -609.76876                    1_GWF-(1,26381)      -3.3994850                    1_GWF-(1,26381)
         52          2          2      -220.01126                    1_GWF-(1,26513)       1.1520698                    1_GWF-(1,26381)
         53          2          3      -104.65321                    1_GWF-(1,26440)      0.72260996                    1_GWF-(1,26506)
         54          2          4      -62.924310                    1_GWF-(1,26665)     -0.29520075                    1_GWF-(1,26506)
         55          2          5      -52.735031                    1_GWF-(1,26649)      0.28522472                    1_GWF-(1,26381)
         56          2          6      -45.648966                    1_GWF-(1,26589)     -0.30904712                    1_GWF-(1,26381)
         57          2          7      -41.570285                    1_GWF-(1,26588)     -0.25961327                    1_GWF-(1,26506)
         58          2          8      -32.172294                    1_GWF-(1,26544)      0.13360244                    1_GWF-(1,26506)
         59          2          9      -25.670426                    1_GWF-(1,26487)     -0.11628807                    1_GWF-(1,26381)
         60          2         10      -19.086702                    1_GWF-(1,26421)     -0.12243923                    1_GWF-(1,26506)
         61          2         11      -17.113113                    1_GWF-(1,26348)  5.25620601E-02                    1_GWF-(1,26665)
         62          2         12      -13.074943                    1_GWF-(1,26218) -7.81527970E-02                    1_GWF-(1,26381)
         63          2         13      -7.9525743                    1_GWF-(1,26218) -7.32602596E-02                    1_GWF-(1,26506)
         64          2         14      -6.6376176                    1_GWF-(1,26649)  2.97053582E-02                    1_GWF-(1,26551)
         65          2         15      -8.1092355                    1_GWF-(1,26622) -6.70234150E-02                    1_GWF-(1,26381)
         66          2         16      -8.4495918                    1_GWF-(1,26623) -7.82298918E-02                    1_GWF-(1,26506)
         67          2         17      -7.0782868                    1_GWF-(1,26622)  4.21508912E-02                    1_GWF-(1,26551)
         68          2         18       7.0592365                    1_GWF-(1,26422) -7.93921487E-02                    1_GWF-(1,26381)
         69          2         19       7.0669514                    1_GWF-(1,26588) -7.33950157E-02                    1_GWF-(1,26506)
         70          2         20       9.0244195                    1_GWF-(1,26543) -3.92776938E-02                    1_GWF-(1,26447)
         71          2         21       10.384677                    1_GWF-(1,26588) -9.05984882E-02                    1_GWF-(1,26381)
         72          2         22       10.298860                    1_GWF-(1,26543) -6.93488341E-02                    1_GWF-(1,26506)
         73          2         23       7.3702587                    1_GWF-(1,26542) -5.49793483E-02                    1_GWF-(1,26447)
         74          2         24      -7.9030890                    1_GWF-(1,26487) -9.86442455E-02                    1_GWF-(1,26381)
         75          2         25      -10.278162                    1_GWF-(1,26486) -5.40168277E-02                    1_GWF-(1,26506)
         76          2         26      -11.276239                    1_GWF-(1,26487)  8.00737401E-02                    1_GWF-(1,26381)
         77          2         27      -7.8280507                    1_GWF-(1,26486)      0.10244280                    1_GWF-(1,26506)
         78          2         28      -4.5871870                    1_GWF-(1,26477) -5.02220924E-02                    1_GWF-(1,26506)
         79          2         29      -3.0211674                    1_GWF-(1,26649)  3.78027090E-02                    1_GWF-(1,26381)
         80          2         30       3.1903614                    1_GWF-(1,26420)  6.26557785E-02                    1_GWF-(1,26506)
         81          2         31      -2.7736898                    1_GWF-(1,26663) -4.54813208E-02                    1_GWF-(1,26506)
         82          2         32      -2.9679854                    1_GWF-(1,26421) -2.25107067E-02                    1_GWF-(1,26378)
         83          2         33      -3.7863662                    1_GWF-(1,26350) -4.92285840E-02                    1_GWF-(1,26381)
         84          2         34      -2.8018022                    1_GWF-(1,26422) -5.11951721E-02                    1_GWF-(1,26506)
         85          2         35       3.7854950                    1_GWF-(1,26422) -2.46754112E-02                    1_GWF-(1,26378)
         86          2         36       3.2610168                    1_GWF-(1,26350) -3.48882226E-02                    1_GWF-(1,26381)
         87          2         37      -3.0690799                    1_GWF-(1,26350) -4.56461075E-02                    1_GWF-(1,26506)
         88          2         38       2.8323832                    1_GWF-(1,26350) -2.00685247E-02                    1_GWF-(1,26378)
         89          2         39       3.2957482                    1_GWF-(1,26422) -3.02041083E-02                    1_GWF-(1,26381)
         90          2         40       2.1840839                    1_GWF-(1,26350) -4.31831938E-02                    1_GWF-(1,26506)
         91          2         41       1.3637930                    1_GWF-(1,26217)  2.67833568E-02                    1_GWF-(1,26506)
         92          2         42      0.96747054                    1_GWF-(1,26218)  1.53860991E-02                    1_GWF-(1,26378)
         93          2         43       1.0494895                    1_GWF-(1,26663)  2.71059296E-02                    1_GWF-(1,26381)
         94          2         44     -0.90939045                    1_GWF-(1,26217)  2.79223659E-02                    1_GWF-(1,26506)
         95          2         45     -0.75443229                    1_GWF-(1,26192) -1.15071210E-02                    1_GWF-(1,26550)
         96          2         46     -0.64167573                    1_GWF-(1,26242)  1.36848210E-02                     1_GWF-(1,9691)
         97          2         47     -0.77188367                    1_GWF-(1,26218)  2.34706212E-02                    1_GWF-(1,26506)
         98          2         48      -1.0816862                    1_GWF-(1,26217) -2.28327034E-02                    1_GWF-(1,26506)
         99          2         49      0.73699988                    1_GWF-(1,25377) -1.99350600E-02                     1_GWF-(1,9691)
        100          2         50     -0.70445620                    1_GWF-(1,23037)  3.28306653E-02                     1_GWF-(1,9691)
        101          3          1      0.39383435                    1_GWF-(1,26674) -1.71874378E-02                    1_GWF-(1,11430)
        102          3          2      0.52363481                    1_GWF-(1,22782)  3.87656597E-02                     1_GWF-(1,9691)
        103          3          3      0.71404192                    1_GWF-(1,26217)  3.34271392E-02                     1_GWF-(1,9692)
        104          3          4      0.76216171                    1_GWF-(1,26218)  4.08641609E-02                     1_GWF-(1,9691)
        105          3          5      0.43373406                    1_GWF-(1,26543)  3.86604083E-02                     1_GWF-(1,9692)
        106          3          6     -0.49376934                    1_GWF-(1,26217)  5.88704571E-02                     1_GWF-(1,9691)
        107          3          7      0.40057996                    1_GWF-(1,26194) -5.44495976E-02                     1_GWF-(1,9691)
        108          3          8     -0.39924941                    1_GWF-(1,26672)  6.74775725E-02                     1_GWF-(1,9691)
        109          3          9      0.41854964                    1_GWF-(1,13206) -6.86127389E-02                     1_GWF-(1,9691)
        110          3         10      0.41561278                    1_GWF-(1,13192)  8.93307744E-02                     1_GWF-(1,9691)
        111          3         11     -0.36117310                    1_GWF-(1,26407) -8.69281123E-02                     1_GWF-(1,9691)
        112          3         12      0.38244458                    1_GWF-(1,26648)  9.66601347E-02                     1_GWF-(1,9691)
        113          3         13      0.38143899                    1_GWF-(1,21364) -9.54754426E-02                     1_GWF-(1,9691)
        114          3         14      0.39231805                    1_GWF-(1,21358)      0.10174192                     1_GWF-(1,9691)
        115          3         15     -0.53960322                    1_GWF-(1,26648) -8.90989011E-02                     1_GWF-(1,9691)
        116          3         16     -0.46209520                    1_GWF-(1,26665)  8.61863322E-02                     1_GWF-(1,9691)
        117          3         17     -0.36191425                    1_GWF-(1,26674) -5.89544735E-02                     1_GWF-(1,9691)
        118          3         18      0.27749672                    1_GWF-(1,26350)  4.56655569E-02                     1_GWF-(1,9691)
        119          3         19      0.39608193                    1_GWF-(1,26665)  2.47418796E-02                     1_GWF-(1,9692)
        120          3         20      0.39756873                    1_GWF-(1,26674)  2.07740671E-02                     1_GWF-(1,9691)
        121          3         21     -0.17570500                    1_GWF-(1,20928)  1.00385370E-02                     1_GWF-(1,9692)
        122          3         22      0.30660257                    1_GWF-(1,26350)  6.63351095E-03                    1_GWF-(1,10961)
        123          3         23      0.32895004                    1_GWF-(1,26421)  1.14757833E-02                     1_GWF-(1,9691)
        124          3         24      0.50748870                    1_GWF-(1,26420)  1.47812334E-02                     1_GWF-(1,9692)
        125          3         25      0.45184370                    1_GWF-(1,26422)  2.00996650E-02                     1_GWF-(1,9691)
        126          3         26      0.53893980                    1_GWF-(1,26420)  1.23291299E-02                     1_GWF-(1,9692)
        127          3         27      0.43351757                    1_GWF-(1,26487) -4.97233632E-03                    1_GWF-(1,16201)
        128          3         28     -0.39557561                    1_GWF-(1,26544)  1.23175564E-02                     1_GWF-(1,9691)
        129          3         29     -0.54358050                    1_GWF-(1,26486)  1.39065531E-02                     1_GWF-(1,9692)
        130          3         30     -0.42186627                    1_GWF-(1,26544)  1.57181753E-02                     1_GWF-(1,9691)
        131          3         31     -0.39228609                    1_GWF-(1,26486)  8.19688196E-03                     1_GWF-(1,9692)
        132          3         32     -0.33666718                    1_GWF-(1,26588)  4.03207419E-03                    1_GWF-(1,11148)
        133          3         33      0.35845412                    1_GWF-(1,26588)  9.77471847E-03                     1_GWF-(1,9691)
        134          3         34     -0.44898195                    1_GWF-(1,26588)  1.22270217E-02                     1_GWF-(1,9692)
        135          3         35      0.35525189                    1_GWF-(1,26588)  1.38566805E-02                     1_GWF-(1,9691)
        136          3         36      0.23806624                    1_GWF-(1,26665)  7.39751749E-03                     1_GWF-(1,9692)
        137          3         37      0.36884295                    1_GWF-(1,26649)  5.18232211E-03                    1_GWF-(1,11048)
        138          3         38      0.44619260                    1_GWF-(1,26622)  5.73628536E-03                     1_GWF-(1,9691)
        139          3         39      0.38388076                    1_GWF-(1,26649)  7.25322393E-03                     1_GWF-(1,9692)
        140          3         40      0.29754921                    1_GWF-(1,26422)  7.99654500E-03                     1_GWF-(1,9691)
        141          3         41     -0.23613784                    1_GWF-(1,26622)  4.29831303E-03                    1_GWF-(1,11047)
        142          3         42     -0.32783030                    1_GWF-(1,26665)  3.59807077E-03                    1_GWF-(1,11152)
        143          3         43     -0.30759364                    1_GWF-(1,26666)  4.52866383E-03                     1_GWF-(1,9691)
        144          3         44     -0.30211316                    1_GWF-(1,26665)  4.47936042E-03                     1_GWF-(1,9692)
        145          3         45      0.31456775                    1_GWF-(1,26665)  5.04863491E-03                     1_GWF-(1,9691)
        146          3         46      0.25226205                    1_GWF-(1,26666) -3.23418016E-03                     1_GWF-(1,9691)
        147          3         47     -0.17152981                    1_GWF-(1,26543) -3.26151290E-03                    1_GWF-(1,11054)
        148          3         48     -0.16787218                    1_GWF-(1,26542)  2.84515447E-03                    1_GWF-(1,10966)
        149          3         49     -0.20076039                    1_GWF-(1,26623)  3.22812202E-03                    1_GWF-(1,11156)
        150          3         50     -0.17104175                    1_GWF-(1,26586)  2.42536823E-03                    1_GWF-(1,11155)
        151          4          1     -0.26574649                    1_GWF-(1,11428) -7.11103342E-03                    1_GWF-(1,10745)
        152          4          2     -0.22269776                    1_GWF-(1,11421) -5.21126791E-03                    1_GWF-(1,15063)
        153          4          3     -0.18315764                    1_GWF-(1,11423)  2.91517772E-03                    1_GWF-(1,15063)
        154          4          4     -0.16700342                    1_GWF-(1,11404)  2.24816015E-03                    1_GWF-(1,15062)
        155          4          5     -0.13967914                    1_GWF-(1,11316)  2.38894278E-03                    1_GWF-(1,15067)
        156          4          6  9.39806425E-02                    1_GWF-(1,11404)  2.80878420E-03                    1_GWF-(1,15063)
        157          4          7      0.11608003                    1_GWF-(1,11403)  2.56737292E-03                    1_GWF-(1,15062)
        158          4          8     -0.11989608                    1_GWF-(1,26665) -2.31569418E-03                    1_GWF-(1,15062)
        159          4          9     -0.11885875                    1_GWF-(1,26666) -2.34929186E-03                    1_GWF-(1,15067)
        160          4         10     -0.13388998                    1_GWF-(1,26665) -1.84582855E-03                    1_GWF-(1,15058)
        161          4         11      0.10799858                    1_GWF-(1,26665)  1.95027020E-03                    1_GWF-(1,15067)
        162          4         12  6.60031373E-02                    1_GWF-(1,26622) -2.13428160E-03                    1_GWF-(1,15067)
        163          4         13 -8.14931241E-02                    1_GWF-(1,26622) -1.56833602E-03                    1_GWF-(1,15058)
        164          4         14  8.35897816E-02                    1_GWF-(1,26622)  8.59985563E-04                    1_GWF-(1,15093)
        165          4         15  6.54949188E-02                    1_GWF-(1,26649)  1.14026349E-03                    1_GWF-(1,15058)
        166          4         16  5.06803838E-02                    1_GWF-(1,26622) -1.23054990E-03                    1_GWF-(1,15058)
        167          4         17  4.34333855E-02                    1_GWF-(1,26588)  1.17206344E-03                     1_GWF-(1,9691)
        168          4         18 -5.92534846E-02                    1_GWF-(1,26588) -1.30998947E-03                     1_GWF-(1,9691)
        169          4         19  6.83968469E-02                    1_GWF-(1,26588) -1.22320984E-03                    1_GWF-(1,15058)
        170          4         20 -7.98302136E-02                    1_GWF-(1,26588)  9.36210704E-04                    1_GWF-(1,10961)
        171          4         21 -5.79443847E-02                    1_GWF-(1,26543)  9.72065616E-04                    1_GWF-(1,15069)
        172          4         22 -3.78541629E-02                    1_GWF-(1,26588)  1.13019748E-03                     1_GWF-(1,9691)
        173          4         23 -5.02937983E-02                    1_GWF-(1,26486) -1.27662955E-03                     1_GWF-(1,9691)
        174          4         24  5.71287288E-02                    1_GWF-(1,26486)  1.04274853E-03                     1_GWF-(1,9691)
        175          4         25 -6.33421853E-02                    1_GWF-(1,26486)  7.87218282E-04                    1_GWF-(1,15080)
        176          4         26 -5.55796192E-02                    1_GWF-(1,26487) -1.21219144E-03                    1_GWF-(1,15079)
        177          4         27 -5.97527863E-02                    1_GWF-(1,26420)  1.63099074E-03                     1_GWF-(1,9691)
        178          4         28 -6.43951565E-02                    1_GWF-(1,26422) -2.13979871E-03                     1_GWF-(1,9691)
        179          4         29 -5.98271285E-02                    1_GWF-(1,26350)  2.04914396E-03                     1_GWF-(1,9691)
        180          4         30  4.36332256E-02                    1_GWF-(1,26350)  1.21378731E-03                     1_GWF-(1,9692)
        181          4         31  4.80303406E-02                    1_GWF-(1,26422)  1.24439165E-03                    1_GWF-(1,15078)
        182          4         32  3.71321500E-02                    1_GWF-(1,26350)  1.10890926E-03                    1_GWF-(1,15083)
        183          4         33  3.18850875E-02                    1_GWF-(1,26421) -8.26641332E-04                    1_GWF-(1,15083)
        184          4         34  2.42976848E-02                    1_GWF-(1,26350)  1.49771656E-03                     1_GWF-(1,9691)
        185          4         35 -2.35634995E-02                    1_GWF-(1,11459) -1.90482034E-03                     1_GWF-(1,9691)
        186          4         36 -2.24396230E-02                    1_GWF-(1,11365)  3.16613412E-03                     1_GWF-(1,9691)
        187          4         37  1.70948778E-02                    1_GWF-(1,11452) -3.40086949E-03                     1_GWF-(1,9691)
        188          4         38  3.02477812E-02                    1_GWF-(1,11454)  4.68981487E-03                     1_GWF-(1,9691)
        189          4         39  1.62566028E-02                    1_GWF-(1,11380) -5.34946605E-03                     1_GWF-(1,9691)
        190          4         40 -1.77130656E-02                    1_GWF-(1,11380)  6.31269683E-03                     1_GWF-(1,9691)
        191          4         41 -1.31392226E-02                    1_GWF-(1,13517) -5.62276872E-03                     1_GWF-(1,9691)
        192          4         42  1.50721004E-02                    1_GWF-(1,11369)  5.35238008E-03                     1_GWF-(1,9691)
        193          4         43 -1.52303875E-02                    1_GWF-(1,11380) -3.99229798E-03                     1_GWF-(1,9691)
        194          4         44  1.36965666E-02                    1_GWF-(1,11453)  3.20383194E-03                     1_GWF-(1,9691)
        195          4         45  1.08214594E-02                    1_GWF-(1,26217) -2.18992667E-03                     1_GWF-(1,9691)
        196          4         46  7.97281432E-03                    1_GWF-(1,26218)  1.99155357E-03                     1_GWF-(1,9691)
        197          4         47  7.85230037E-03                    1_GWF-(1,11701)  1.25482068E-03                     1_GWF-(1,9692)
        198          4         48  8.73367048E-03                    1_GWF-(1,11454)  1.32044052E-03                     1_GWF-(1,9691)
        199          4         49  8.90396740E-03                    1_GWF-(1,11381)  8.15664053E-04                     1_GWF-(1,9692)
        200          4         50 -1.19413358E-02                    1_GWF-(1,26217)  9.71486140E-04                     1_GWF-(1,9691)
        201          5          1 -4.03342067E-02                    1_GWF-(1,11378) -3.91398474E-04                    1_GWF-(1,11371)
        202          5          2 -2.86112406E-02                    1_GWF-(1,11369)  1.16376517E-03                     1_GWF-(1,9691)
        203          5          3 -1.52253017E-02                    1_GWF-(1,11454)  1.12466316E-03                     1_GWF-(1,9692)
        204          5          4  1.69524895E-02                    1_GWF-(1,11367)  1.23354006E-03                     1_GWF-(1,9691)
        205          5          5 -2.12324519E-02                    1_GWF-(1,11372)  1.08983164E-03                     1_GWF-(1,9692)
        206          5          6  1.94834541E-02                    1_GWF-(1,11372)  1.67876525E-03                     1_GWF-(1,9691)
        207          5          7  1.89797022E-02                    1_GWF-(1,11367) -1.65481654E-03                     1_GWF-(1,9691)
        208          5          8  1.44260541E-02                    1_GWF-(1,11368)  2.14452245E-03                     1_GWF-(1,9691)
        209          5          9  1.74313855E-02                    1_GWF-(1,11372) -2.32110167E-03                     1_GWF-(1,9691)
        210          5         10  1.39790521E-02                    1_GWF-(1,11367)  2.65413972E-03                     1_GWF-(1,9691)
        211          5         11 -1.79553817E-02                    1_GWF-(1,11367) -2.35619745E-03                     1_GWF-(1,9691)
        212          5         12 -1.74652941E-02                    1_GWF-(1,11368)  2.43903221E-03                     1_GWF-(1,9691)
        213          5         13 -1.44526640E-02                    1_GWF-(1,11451) -1.93506293E-03                     1_GWF-(1,9691)
        214          5         14  1.35505866E-02                    1_GWF-(1,11451)  1.88908900E-03                     1_GWF-(1,9691)
        215          5         15  1.28355566E-02                    1_GWF-(1,11452) -1.32898702E-03                     1_GWF-(1,9691)
        216          5         16  1.43334214E-02                    1_GWF-(1,11368)  1.10719248E-03                     1_GWF-(1,9691)
        217          5         17  1.10222381E-02                    1_GWF-(1,11451)  4.45078279E-04                     1_GWF-(1,9692)
        218          5         18 -1.21688834E-02                    1_GWF-(1,26486)  1.62220138E-04                    1_GWF-(1,11352)
        219          5         19 -1.09637137E-02                    1_GWF-(1,26487)  7.25047073E-04                     1_GWF-(1,9691)
        220          5         20 -9.27056395E-03                    1_GWF-(1,26543)  6.73432899E-04                     1_GWF-(1,9692)
        221          5         21  8.67837547E-03                    1_GWF-(1,11452)  6.67423478E-04                     1_GWF-(1,9691)
        222          5         22 -8.69146453E-03                    1_GWF-(1,11452)  3.52861762E-04                     1_GWF-(1,9692)
        223          5         23 -8.59581778E-03                    1_GWF-(1,11415)  2.53088744E-04                     1_GWF-(1,9691)
        224          5         24  5.78435125E-03                    1_GWF-(1,26486) -1.88865018E-04                    1_GWF-(1,14800)
        225          5         25  6.51917912E-03                    1_GWF-(1,26350) -1.49853484E-04                    1_GWF-(1,14801)
        226          5         26  8.82197929E-03                    1_GWF-(1,26486)  2.87365933E-04                     1_GWF-(1,9691)
        227          5         27  7.39483899E-03                    1_GWF-(1,26544)  2.40662902E-04                     1_GWF-(1,9692)
        228          5         28  7.02207254E-03                    1_GWF-(1,26486)  1.78130869E-04                     1_GWF-(1,9691)
        229          5         29  6.10340463E-03                    1_GWF-(1,26622) -1.59575655E-04                    1_GWF-(1,10651)
        230          5         30  5.11973039E-03                    1_GWF-(1,26649)  2.11547678E-04                     1_GWF-(1,9692)
        231          5         31 -5.60860838E-03                    1_GWF-(1,26350)  3.65714881E-04                     1_GWF-(1,9691)
        232          5         32 -6.64205594E-03                    1_GWF-(1,26422)  2.92738719E-04                     1_GWF-(1,9692)
        233          5         33 -6.10051221E-03                    1_GWF-(1,26350)  3.38429752E-04                     1_GWF-(1,9691)
        234          5         34 -5.42947827E-03                    1_GWF-(1,26422)  1.94294176E-04                     1_GWF-(1,9692)
        235          5         35 -4.61576198E-03                    1_GWF-(1,26588)  1.37502369E-04                    1_GWF-(1,10651)
        236          5         36  5.36897726E-03                    1_GWF-(1,26588) -9.67095435E-05                    1_GWF-(1,10651)
        237          5         37 -7.49821396E-03                    1_GWF-(1,26588)  1.45100367E-04                     1_GWF-(1,9692)
        238          5         38 -5.82693380E-03                    1_GWF-(1,26589)  2.35446901E-04                     1_GWF-(1,9691)
        239          5         39 -6.32655084E-03                    1_GWF-(1,26588) -1.90074378E-04                    1_GWF-(1,10651)
        240          5         40 -4.20918912E-03                    1_GWF-(1,26665)  1.67138029E-04                    1_GWF-(1,10651)
        241          5         41  5.26472842E-03                    1_GWF-(1,26665)  1.42936900E-04                    1_GWF-(1,10652)
        242          5         42  5.84317894E-03                    1_GWF-(1,26666)  1.26608615E-04                    1_GWF-(1,10651)
        243          5         43  6.59257122E-03                    1_GWF-(1,26665)  1.42891865E-04                     1_GWF-(1,9691)
        244          5         44 -4.96821247E-03                    1_GWF-(1,26665)  1.16104589E-04                     1_GWF-(1,9692)
        245          5         45  3.71001794E-03                    1_GWF-(1,26665)  1.63573891E-04                    1_GWF-(1,10651)
        246          5         46  3.51678622E-03                    1_GWF-(1,11305)  1.06124908E-04                    1_GWF-(1,10652)
        247          5         47  3.11511737E-03                    1_GWF-(1,11404)  1.09211541E-04                    1_GWF-(1,10651)
        248          5         48  3.15015015E-03                    1_GWF-(1,11411) -1.11587733E-04                    1_GWF-(1,10651)
        249          5         49  2.37544226E-03                    1_GWF-(1,11425)  1.24226866E-04                    1_GWF-(1,10651)
        250          5         50 -3.19726520E-03                     1_GWF-(1,8033) -1.06990021E-04                    1_GWF-(1,11351)
        251          6          1 -1.83089709E-02                    1_GWF-(1,11373)  6.83563958E-05                    1_GWF-(1,10651)
        252          6          2 -8.59598873E-03                    1_GWF-(1,11378) -7.40003748E-05                    1_GWF-(1,10651)
        253          6          3  6.87223493E-03                    1_GWF-(1,11378)  9.52386565E-05                    1_GWF-(1,10651)
        254          6          4  4.72707630E-03                    1_GWF-(1,11369) -6.96100337E-05                    1_GWF-(1,10651)
        255          6          5 -6.19374143E-03                    1_GWF-(1,11378)  8.34354441E-05                    1_GWF-(1,10651)
        256          6          6  5.38627671E-03                    1_GWF-(1,11378) -5.67648572E-05                     1_GWF-(1,9691)
        257          6          7  4.56142736E-03                    1_GWF-(1,11369)  4.90125935E-05                     1_GWF-(1,9691)
        258          6          8  3.63314650E-03                    1_GWF-(1,11454)  4.19418116E-05                    1_GWF-(1,10651)
        259          6          9  3.07333835E-03                    1_GWF-(1,11378)  4.84477691E-05                    1_GWF-(1,10652)
        260          6         10 -2.66784678E-03                    1_GWF-(1,26665)  4.01073327E-05                    1_GWF-(1,10651)
        261          6         11 -2.84865669E-03                    1_GWF-(1,11369) -4.96159414E-05                    1_GWF-(1,10651)
        262          6         12 -2.42022523E-03                    1_GWF-(1,11454)  4.57931019E-05                     1_GWF-(1,9691)
        263          6         13  1.59596527E-03                    1_GWF-(1,26543) -4.41548271E-05                     1_GWF-(1,9691)
        264          6         14  2.40967677E-03                    1_GWF-(1,26588)  3.27941950E-05                     1_GWF-(1,9691)
        265          6         15  1.93700604E-03                    1_GWF-(1,26543) -2.46870326E-05                    1_GWF-(1,10632)
        266          6         16  1.96195636E-03                    1_GWF-(1,26588)  1.96431682E-05                    1_GWF-(1,10966)
        267          6         17 -1.20464170E-03                    1_GWF-(1,26420)  3.34589295E-05                     1_GWF-(1,9691)
        268          6         18 -1.31496470E-03                    1_GWF-(1,26422) -5.43383835E-05                     1_GWF-(1,9691)
        269          6         19  1.44285087E-03                    1_GWF-(1,26422)  6.33714077E-05                     1_GWF-(1,9691)
        270          6         20  1.40433472E-03                    1_GWF-(1,26350)  4.71552183E-05                     1_GWF-(1,9692)
        271          6         21  1.26749762E-03                    1_GWF-(1,26422)  3.80619315E-05                     1_GWF-(1,9691)
        272          6         22 -1.35724591E-03                    1_GWF-(1,26622) -1.64686450E-05                    1_GWF-(1,15092)
        273          6         23 -1.64995317E-03                    1_GWF-(1,26649) -1.97633406E-05                     1_GWF-(1,9691)
        274          6         24 -1.44329293E-03                    1_GWF-(1,26487)  4.65774721E-05                     1_GWF-(1,9691)
        275          6         25 -1.71588635E-03                    1_GWF-(1,26486) -4.08431803E-05                     1_GWF-(1,9691)
        276          6         26 -1.43458446E-03                    1_GWF-(1,26350)  3.59220781E-05                     1_GWF-(1,9691)
        277          6         27 -1.20877855E-03                    1_GWF-(1,26422)  1.53221176E-05                    1_GWF-(1,11053)
        278          6         28  8.47271941E-04                    1_GWF-(1,11417) -1.95853604E-05                    1_GWF-(1,10652)
        279          6         29  8.18036607E-04                    1_GWF-(1,26420) -3.33675166E-05                    1_GWF-(1,10651)
        280          6         30  1.07080700E-03                    1_GWF-(1,26421)  3.49957984E-05                     1_GWF-(1,9692)
        281          6         31  1.07117567E-03                    1_GWF-(1,26420)  4.72007501E-05                     1_GWF-(1,9691)
        282          6         32  9.98138562E-04                    1_GWF-(1,26487) -3.90459770E-05                     1_GWF-(1,9691)
        283          6         33  1.00730100E-03                    1_GWF-(1,26486)  2.59118138E-05                     1_GWF-(1,9691)
        284          6         34  9.37205775E-04                    1_GWF-(1,26487)  1.56553394E-05                    1_GWF-(1,10652)
        285          6         35  7.96710803E-04                    1_GWF-(1,26486) -3.33648942E-05                     1_GWF-(1,9691)
        286          6         36 -4.64161732E-04                    1_GWF-(1,11466)  6.13867374E-05                     1_GWF-(1,9691)
        287          6         37 -3.70242328E-04                    1_GWF-(1,26348) -6.65799032E-05                     1_GWF-(1,9691)
        288          6         38  4.41555298E-04                    1_GWF-(1,11454)  8.99955238E-05                     1_GWF-(1,9691)
        289          6         39  3.93982409E-04                    1_GWF-(1,11464) -1.03503698E-04                     1_GWF-(1,9691)
        290          6         40 -3.53344452E-04                    1_GWF-(1,20914)  1.30227415E-04                     1_GWF-(1,9691)
        291          6         41 -4.12475769E-04                    1_GWF-(1,13487) -1.32857632E-04                     1_GWF-(1,9691)
        292          6         42 -3.82545781E-04                    1_GWF-(1,13494)  1.35727263E-04                     1_GWF-(1,9691)
        293          6         43 -3.90804404E-04                    1_GWF-(1,11380) -1.17157721E-04                     1_GWF-(1,9691)
        294          6         44 -2.90705214E-04                    1_GWF-(1,13337)  1.02322719E-04                     1_GWF-(1,9691)
        295          6         45  3.10369015E-04                    1_GWF-(1,11379) -7.20673796E-05                     1_GWF-(1,9691)
        296          6         46 -3.67691773E-04                     1_GWF-(1,8097)  7.03920938E-05                     1_GWF-(1,9691)
        297          6         47 -2.86406632E-04                    1_GWF-(1,11378) -4.80596251E-05                     1_GWF-(1,9691)
        298          6         48 -2.32665961E-04                     1_GWF-(1,8204)  4.63888091E-05                     1_GWF-(1,9691)
        299          6         49  2.78320999E-04                    1_GWF-(1,11372) -2.45531728E-05                     1_GWF-(1,9691)
        300          6         50  2.84024231E-04                    1_GWF-(1,11454)  3.27744602E-05                     1_GWF-(1,9691)
        301          7          1 -3.24719086E-03                    1_GWF-(1,11374)  9.84941875E-06                     1_GWF-(1,9692)
        302          7          2 -1.00664465E-03                    1_GWF-(1,11379)  3.65751621E-05                     1_GWF-(1,9691)
        303          7          3 -4.59022025E-04                    1_GWF-(1,11455) -4.54526946E-05                     1_GWF-(1,9691)
        304          7          4  5.79462867E-04                    1_GWF-(1,11382)  4.40667162E-05                     1_GWF-(1,9691)
        305          7          5 -6.67209930E-04                    1_GWF-(1,11376) -3.62999814E-05                     1_GWF-(1,9691)
        306          7          6  5.17716860E-04                    1_GWF-(1,11453)  5.96266735E-05                     1_GWF-(1,9691)
        307          7          7  2.95523322E-04                    1_GWF-(1,11460) -7.05482332E-05                     1_GWF-(1,9691)
        308          7          8 -4.51914050E-04                    1_GWF-(1,11376)  6.93194576E-05                     1_GWF-(1,9691)
        309          7          9  3.40505064E-04                    1_GWF-(1,11376) -7.10667953E-05                     1_GWF-(1,9691)
        310          7         10  2.83375408E-04                    1_GWF-(1,11460)  7.93706628E-05                     1_GWF-(1,9691)
        311          7         11 -3.54158993E-04                    1_GWF-(1,11376) -5.80200005E-05                     1_GWF-(1,9691)
        312          7         12 -2.86689473E-04                    1_GWF-(1,11417)  4.48664289E-05                     1_GWF-(1,9691)
        313          7         13  2.42500859E-04                    1_GWF-(1,26588)  2.59647982E-05                     1_GWF-(1,9692)
        314          7         14 -4.08995728E-04                    1_GWF-(1,26588)  8.80337021E-06                     1_GWF-(1,9669)
        315          7         15 -3.86521450E-04                    1_GWF-(1,26543)  2.15778507E-05                     1_GWF-(1,9691)
        316          7         16 -3.54257589E-04                    1_GWF-(1,26588) -2.93873071E-05                     1_GWF-(1,9691)
        317          7         17 -2.18639032E-04                    1_GWF-(1,26622)  2.91202800E-05                     1_GWF-(1,9691)
        318          7         18 -2.03472855E-04                    1_GWF-(1,26487)  1.56713935E-05                     1_GWF-(1,9692)
        319          7         19 -2.81788097E-04                    1_GWF-(1,26486)  7.70402104E-06                     1_GWF-(1,9669)
        320          7         20 -3.59412495E-04                    1_GWF-(1,26487)  1.41983538E-05                     1_GWF-(1,9691)
        321          7         21 -3.32852509E-04                    1_GWF-(1,26420)  1.85235459E-05                     1_GWF-(1,9692)
        322          7         22 -2.50777384E-04                    1_GWF-(1,26487)  2.00096947E-05                     1_GWF-(1,9691)
        323          7         23 -1.87173119E-04                    1_GWF-(1,26420)  1.34364245E-05                     1_GWF-(1,9692)
        324          7         24  2.09857816E-04                    1_GWF-(1,26420)  1.20951399E-05                     1_GWF-(1,9691)
        325          7         25  2.15982191E-04                    1_GWF-(1,26421)  9.09493371E-06                     1_GWF-(1,9690)
        326          7         26  2.57277173E-04                    1_GWF-(1,26420)  4.01676612E-06                     1_GWF-(1,9669)
        327          7         27  2.45359934E-04                    1_GWF-(1,26487)  6.08119689E-06                     1_GWF-(1,9691)
        328          7         28  2.28053938E-04                    1_GWF-(1,26486)  6.80570076E-06                     1_GWF-(1,9690)
        329          7         29  1.65868048E-04                    1_GWF-(1,26544)  5.69258699E-06                     1_GWF-(1,9669)
        330          7         30  1.57845824E-04                    1_GWF-(1,26486)  5.48857185E-06                     1_GWF-(1,9690)
        331          7         31  1.40119249E-04                    1_GWF-(1,26544)  3.15288021E-06                    1_GWF-(1,10961)
        332          7         32  1.59343838E-04                    1_GWF-(1,26486)  5.87756992E-06                     1_GWF-(1,9691)
        333          7         33  1.45908068E-04                    1_GWF-(1,26544)  5.86887141E-06                     1_GWF-(1,9692)
        334          7         34  1.54048496E-04                    1_GWF-(1,26422)  7.58364241E-06                     1_GWF-(1,9691)
        335          7         35  1.59466151E-04                    1_GWF-(1,26350)  6.42024523E-06                     1_GWF-(1,9692)
        336          7         36  1.51659503E-04                    1_GWF-(1,26422)  6.53751255E-06                     1_GWF-(1,9691)
        337          7         37 -1.17143348E-04                    1_GWF-(1,26665)  4.35419483E-06                     1_GWF-(1,9692)
        338          7         38 -1.20485777E-04                    1_GWF-(1,26666)  2.93835326E-06                     1_GWF-(1,9691)
        339          7         39 -1.50790443E-04                    1_GWF-(1,26665)  3.12882905E-06                    1_GWF-(1,11353)
        340          7         40  1.38962392E-04                    1_GWF-(1,26665)  3.56438429E-06                     1_GWF-(1,9690)
        341          7         41 -1.29130207E-04                    1_GWF-(1,26665)  5.41625548E-06                     1_GWF-(1,9691)
        342          7         42 -1.42572404E-04                    1_GWF-(1,26422)  4.90243228E-06                     1_GWF-(1,9692)
        343          7         43 -1.32793477E-04                    1_GWF-(1,26350)  4.58813098E-06                     1_GWF-(1,9691)
        344          7         44 -1.18569378E-04                    1_GWF-(1,11369)  3.19452967E-06                     1_GWF-(1,9692)
        345          7         45  9.44092400E-05                    1_GWF-(1,26217)  4.13805084E-06                    1_GWF-(1,10653)
        346          7         46  1.16566316E-04                    1_GWF-(1,11378)  2.48937292E-06                    1_GWF-(1,10654)
        347          7         47  9.29277014E-05                    1_GWF-(1,26422)  2.77532786E-06                    1_GWF-(1,10653)
        348          7         48  9.64709265E-05                    1_GWF-(1,26218) -2.68227417E-06                    1_GWF-(1,10653)
        349          7         49  7.47784250E-05                    1_GWF-(1,26217)  3.90880828E-06                     1_GWF-(1,9690)
        350          7         50  1.25242005E-04                    1_GWF-(1,11373) -4.43413920E-06                     1_GWF-(1,9690)
        351          8          1 -1.43339262E-04                    1_GWF-(1,11373)  5.20125748E-06                     1_GWF-(1,9690)
        352          8          2 -1.08290676E-04                    1_GWF-(1,11378) -3.94257343E-06                     1_GWF-(1,9690)
        353          8          3 -8.31201671E-05                    1_GWF-(1,26218)  4.50961744E-06                     1_GWF-(1,9690)
        354          8          4 -7.63152739E-05                    1_GWF-(1,26217) -3.66417597E-06                     1_GWF-(1,9690)
        355          8          5 -1.07706800E-04                    1_GWF-(1,11378)  3.12327495E-06                     1_GWF-(1,9690)
        356          8          6 -8.23609327E-05                    1_GWF-(1,26486) -1.03873704E-06                     1_GWF-(1,9691)
        357          8          7  8.97668617E-05                    1_GWF-(1,26486) -1.48885538E-06                     1_GWF-(1,9690)
        358          8          8 -7.61547090E-05                    1_GWF-(1,26486)  3.11962782E-06                     1_GWF-(1,9690)
        359          8          9  6.86087276E-05                    1_GWF-(1,26218)  2.10208829E-06                     1_GWF-(1,9669)
        360          8         10  6.53046539E-05                    1_GWF-(1,26422)  1.98948019E-06                     1_GWF-(1,9691)
        361          8         11  5.87456313E-05                    1_GWF-(1,26350) -1.78626781E-06                     1_GWF-(1,9691)
        362          8         12  5.17368374E-05                    1_GWF-(1,26422)  1.78486639E-06                     1_GWF-(1,9691)
        363          8         13  6.71998612E-05                    1_GWF-(1,26622)  1.06855119E-06                     1_GWF-(1,9692)
        364          8         14  7.16591585E-05                    1_GWF-(1,26649) -1.05434110E-06                     1_GWF-(1,9690)
        365          8         15  8.00399702E-05                    1_GWF-(1,26622)  9.17082731E-07                     1_GWF-(1,9691)
        366          8         16  5.13882414E-05                    1_GWF-(1,26649) -1.56659171E-06                     1_GWF-(1,9691)
        367          8         17 -5.13992125E-05                    1_GWF-(1,26350)  1.59559608E-06                     1_GWF-(1,9691)
        368          8         18  4.53974351E-05                    1_GWF-(1,26665)  1.37651843E-06                     1_GWF-(1,9690)
        369          8         19 -5.58132006E-05                    1_GWF-(1,26665)  9.86271971E-07                     1_GWF-(1,9669)
        370          8         20 -4.15743263E-05                    1_GWF-(1,26666)  1.10788162E-06                     1_GWF-(1,9691)
        371          8         21 -3.90466674E-05                    1_GWF-(1,26665)  1.16762493E-06                     1_GWF-(1,9692)
        372          8         22 -2.82152659E-05                    1_GWF-(1,26543)  1.70770563E-06                     1_GWF-(1,9691)
        373          8         23 -3.34448054E-05                    1_GWF-(1,26486) -1.61068118E-06                     1_GWF-(1,9691)
        374          8         24 -4.03373678E-05                    1_GWF-(1,26350)  1.54236650E-06                     1_GWF-(1,9691)
        375          8         25 -4.28054700E-05                    1_GWF-(1,26422)  1.04249472E-06                     1_GWF-(1,9690)
        376          8         26 -3.46859689E-05                    1_GWF-(1,26350)  6.90564558E-07                    1_GWF-(1,11058)
        377          8         27  2.96952840E-05                    1_GWF-(1,26589)  6.34073706E-07                    1_GWF-(1,11353)
        378          8         28  3.61110338E-05                    1_GWF-(1,26588)  8.12823004E-07                     1_GWF-(1,9692)
        379          8         29  3.09593844E-05                    1_GWF-(1,26589)  1.48383812E-06                     1_GWF-(1,9691)
        380          8         30  3.73596156E-05                    1_GWF-(1,26588)  1.20449990E-06                     1_GWF-(1,9692)
        381          8         31  3.32247485E-05                    1_GWF-(1,26543)  6.28242248E-07                     1_GWF-(1,9691)
        382          8         32  3.62794644E-05                    1_GWF-(1,26420) -4.18722083E-07                    1_GWF-(1,10651)
        383          8         33  2.63430547E-05                    1_GWF-(1,26421)  8.08284989E-07                     1_GWF-(1,9692)
        384          8         34  1.86176472E-05                    1_GWF-(1,26420)  1.39833407E-06                     1_GWF-(1,9691)
        385          8         35 -1.75791143E-05                    1_GWF-(1,11380)  1.56958338E-06                     1_GWF-(1,9692)
        386          8         36 -1.34957751E-05                    1_GWF-(1,26421)  2.41628464E-06                     1_GWF-(1,9691)
        387          8         37 -1.28053423E-05                    1_GWF-(1,26348) -2.44984440E-06                     1_GWF-(1,9691)
        388          8         38 -1.42770759E-05                     1_GWF-(1,8061)  3.06916646E-06                     1_GWF-(1,9691)
        389          8         39  1.47857577E-05                    1_GWF-(1,11417) -3.45245543E-06                     1_GWF-(1,9691)
        390          8         40 -1.16095292E-05                    1_GWF-(1,13489)  4.34624933E-06                     1_GWF-(1,9691)
        391          8         41 -1.40049441E-05                    1_GWF-(1,11461) -3.91311910E-06                     1_GWF-(1,9691)
        392          8         42 -1.56384952E-05                    1_GWF-(1,26649)  3.18399729E-06                     1_GWF-(1,9691)
        393          8         43 -1.97624097E-05                    1_GWF-(1,26622) -1.49742107E-06                     1_GWF-(1,9691)
        394          8         44 -1.99198029E-05                    1_GWF-(1,26649)  6.96581530E-07                     1_GWF-(1,9692)
        395          8         45 -1.74320580E-05                    1_GWF-(1,26622)  2.52723265E-06                     1_GWF-(1,9691)
        396          8         46 -1.33979691E-05                     1_GWF-(1,8097) -2.84805896E-06                     1_GWF-(1,9691)
        397          8         47 -1.58698482E-05                    1_GWF-(1,11380)  2.53138257E-06                     1_GWF-(1,9691)
        398          8         48 -1.99503286E-05                    1_GWF-(1,11379) -1.87475313E-06                     1_GWF-(1,9691)
        399          8         49  1.59812468E-05                    1_GWF-(1,11381)  1.80047294E-06                     1_GWF-(1,9691)
        400          8         50  2.14998834E-05                    1_GWF-(1,11376) -1.58753046E-06                     1_GWF-(1,9691)
        401          9          1 -1.67014681E-05                    1_GWF-(1,11379)  1.82365467E-06                     1_GWF-(1,9691)
        402          9          2 -1.43818110E-05                    1_GWF-(1,11379) -9.18926767E-07                     1_GWF-(1,9691)
        403          9          3  1.71756443E-05                    1_GWF-(1,11376)  3.05103394E-07                     1_GWF-(1,9669)
        404          9          4  1.51285169E-05                    1_GWF-(1,26486)  1.17044599E-06                     1_GWF-(1,9691)
        405          9          5 -1.50629337E-05                    1_GWF-(1,11376) -1.23561340E-06                     1_GWF-(1,9691)
        406          9          6 -1.26922819E-05                    1_GWF-(1,11380)  1.75717891E-06                     1_GWF-(1,9691)
        407          9          7  8.67305662E-06                    1_GWF-(1,11382) -2.05974265E-06                     1_GWF-(1,9691)
        408          9          8 -9.35925278E-06                    1_GWF-(1,11376)  2.27332396E-06                     1_GWF-(1,9691)
        409          9          9  1.05998784E-05                    1_GWF-(1,26588) -1.95114783E-06                     1_GWF-(1,9691)
        410          9         10  1.47894660E-05                    1_GWF-(1,26622)  1.01713911E-06                     1_GWF-(1,9691)
        411          9         11  1.42431387E-05                    1_GWF-(1,26623)  6.57572760E-07                     1_GWF-(1,9691)
        412          9         12  1.15979523E-05                    1_GWF-(1,26622) -1.55527872E-06                     1_GWF-(1,9691)
        413          9         13 -8.59909098E-06                    1_GWF-(1,26622)  2.03158986E-06                     1_GWF-(1,9691)
        414          9         14 -6.02290566E-06                    1_GWF-(1,11457) -1.72339993E-06                     1_GWF-(1,9691)
        415          9         15 -5.18804187E-06                    1_GWF-(1,11379)  1.60966713E-06                     1_GWF-(1,9691)
        416          9         16 -6.53893179E-06                    1_GWF-(1,26665) -1.13327934E-06                     1_GWF-(1,9691)
        417          9         17 -7.14945212E-06                    1_GWF-(1,26666)  8.41612525E-07                     1_GWF-(1,9691)
        418          9         18 -1.00440770E-05                    1_GWF-(1,26665)  5.08436224E-07                     1_GWF-(1,9690)
        419          9         19  1.21314744E-05                    1_GWF-(1,26665)  2.89533014E-07                     1_GWF-(1,9692)
        420          9         20  1.01385019E-05                    1_GWF-(1,26666)  8.98676377E-07                     1_GWF-(1,9691)
        421          9         21  8.58028962E-06                    1_GWF-(1,26665)  8.64955002E-07                     1_GWF-(1,9692)
        422          9         22  6.38211291E-06                    1_GWF-(1,26588)  7.75710329E-07                     1_GWF-(1,9691)
        423          9         23 -6.71539497E-06                    1_GWF-(1,26588)  5.45244917E-07                     1_GWF-(1,9690)
        424          9         24  7.39126606E-06                    1_GWF-(1,26420) -3.35827088E-07                     1_GWF-(1,9690)
        425          9         25 -7.15599503E-06                    1_GWF-(1,26588)  2.48624278E-07                     1_GWF-(1,9691)
        426          9         26  6.92992599E-06                    1_GWF-(1,26420)  3.94963570E-07                     1_GWF-(1,9692)
        427          9         27  5.66852622E-06                    1_GWF-(1,26543)  4.94397534E-07                     1_GWF-(1,9691)
        428          9         28  4.13236698E-06                    1_GWF-(1,26665)  4.67796389E-07                     1_GWF-(1,9690)
        429          9         29  3.60380381E-06                    1_GWF-(1,25507)  3.40969602E-07                     1_GWF-(1,9669)
        430          9         30  3.81594147E-06                    1_GWF-(1,26588)  3.36939884E-07                     1_GWF-(1,9690)
        431          9         31  4.63060863E-06                    1_GWF-(1,26586)  2.36573711E-07                     1_GWF-(1,9669)
        432          9         32  4.75367534E-06                    1_GWF-(1,26623)  1.68758013E-07                     1_GWF-(1,9690)
        433          9         33  4.51844920E-06                    1_GWF-(1,26586) -1.25589171E-07                    1_GWF-(1,10966)
        434          9         34  5.54098213E-06                    1_GWF-(1,26623)  1.45023408E-07                     1_GWF-(1,9691)
        435          9         35 -6.50609283E-06                    1_GWF-(1,26649)  1.70762817E-07                     1_GWF-(1,9690)
        436          9         36 -7.83402678E-06                    1_GWF-(1,26622)  9.64619835E-08                    1_GWF-(1,11206)
        437          9         37 -7.18485018E-06                    1_GWF-(1,26649) -9.45970669E-08                    1_GWF-(1,10653)
        438          9         38 -4.33224145E-06                    1_GWF-(1,26622)  1.64792518E-07                     1_GWF-(1,9690)
        439          9         39 -4.23328877E-06                    1_GWF-(1,26544)  1.90838605E-07                     1_GWF-(1,9691)
        440          9         40 -5.14809204E-06                    1_GWF-(1,26486)  2.10437205E-07                     1_GWF-(1,9690)
        441          9         41  5.17747039E-06                    1_GWF-(1,26486)  1.93023082E-07                     1_GWF-(1,9691)
        442          9         42 -6.28481699E-06                    1_GWF-(1,26486)  1.00267090E-07                     1_GWF-(1,9692)
        443          9         43 -5.72213828E-06                    1_GWF-(1,26487)  1.10996713E-07                     1_GWF-(1,9690)
        444          9         44 -5.24708463E-06                    1_GWF-(1,26420)  1.24744124E-07                     1_GWF-(1,9691)
        445          9         45 -4.33406042E-06                    1_GWF-(1,26422) -1.29179487E-07                     1_GWF-(1,9691)
        446          9         46  4.08299924E-06                    1_GWF-(1,26422)  1.36078182E-07                     1_GWF-(1,9691)
        447          9         47  3.97002276E-06                    1_GWF-(1,26350) -9.46453092E-08                     1_GWF-(1,9691)
        448          9         48  3.79828425E-06                    1_GWF-(1,26422)  9.47516951E-08                     1_GWF-(1,9691)
        449          9         49  3.13939165E-06                    1_GWF-(1,26350)  8.97189783E-08                    1_GWF-(1,10654)
        450          9         50  3.43127443E-06                    1_GWF-(1,11379)  1.42076681E-07                     1_GWF-(1,9690)
        451         10          1 -3.14064685E-06                    1_GWF-(1,26422) -1.86265289E-07                     1_GWF-(1,9690)
        452         10          2 -3.66066272E-06                    1_GWF-(1,26218)  1.35198015E-07                     1_GWF-(1,9690)
        453         10          3 -3.41707716E-06                    1_GWF-(1,26422) -8.28272543E-08                     1_GWF-(1,9690)
        454         10          4 -3.13396889E-06                    1_GWF-(1,26350)  7.24190332E-08                     1_GWF-(1,9691)
        455         10          5 -2.80841063E-06                    1_GWF-(1,26422)  4.43210332E-08                     1_GWF-(1,9692)
        456         10          6 -3.27790922E-06                    1_GWF-(1,26588)  5.74159271E-08                    1_GWF-(1,11197)
        457         10          7  3.04065486E-06                    1_GWF-(1,26588)  6.94668523E-08                     1_GWF-(1,9690)
        458         10          8 -2.70326599E-06                    1_GWF-(1,26588)  5.78775382E-08                     1_GWF-(1,9692)
        459         10          9  2.18428617E-06                    1_GWF-(1,26217)  9.86915485E-08                     1_GWF-(1,9691)
        460         10         10  2.22061229E-06                    1_GWF-(1,26350) -7.17958004E-08                     1_GWF-(1,9691)
        461         10         11  2.01856297E-06                    1_GWF-(1,26422)  6.08210436E-08                     1_GWF-(1,9691)
        462         10         12  2.02542107E-06                    1_GWF-(1,26622)  4.08479786E-08                     1_GWF-(1,9690)
        463         10         13  2.37072435E-06                    1_GWF-(1,26623)  3.31419277E-08                    1_GWF-(1,10966)
        464         10         14  2.70708641E-06                    1_GWF-(1,26622)  4.56772544E-08                     1_GWF-(1,9691)
        465         10         15  2.39458756E-06                    1_GWF-(1,26649) -4.93279241E-08                     1_GWF-(1,9691)
        466         10         16 -1.79320255E-06                    1_GWF-(1,26350)  3.99623019E-08                     1_GWF-(1,9691)
        467         10         17  1.84668140E-06                    1_GWF-(1,26665)  4.00316250E-08                     1_GWF-(1,9690)
        468         10         18 -2.16912631E-06                    1_GWF-(1,26665) -2.92309887E-08                    1_GWF-(1,10961)
        469         10         19  1.68191301E-06                    1_GWF-(1,26665)  5.61095546E-08                     1_GWF-(1,9691)
        470         10         20 -1.71706676E-06                    1_GWF-(1,26665)  5.04564295E-08                     1_GWF-(1,9692)
        471         10         21 -1.15044765E-06                    1_GWF-(1,26589)  5.18715964E-08                     1_GWF-(1,9691)
        472         10         22 -1.26494337E-06                    1_GWF-(1,26588)  3.74724092E-08                     1_GWF-(1,9690)
        473         10         23 -1.32952458E-06                    1_GWF-(1,26420)  2.12585572E-08                    1_GWF-(1,11036)
        474         10         24 -1.41539525E-06                    1_GWF-(1,26487)  3.36761917E-08                    1_GWF-(1,11197)
        475         10         25 -1.60702575E-06                    1_GWF-(1,26486)  3.51471308E-08                     1_GWF-(1,9692)
        476         10         26  1.62106647E-06                    1_GWF-(1,26486)  3.06442109E-08                     1_GWF-(1,9691)
        477         10         27  1.26353064E-06                    1_GWF-(1,26544)  2.58507211E-08                    1_GWF-(1,11197)
        478         10         28  1.06690650E-06                    1_GWF-(1,26486)  1.77607642E-08                    1_GWF-(1,15187)
        479         10         29  6.41681960E-07                    1_GWF-(1,26544)  4.46900634E-08                     1_GWF-(1,9691)
        480         11          1  6.43097035E-07                    1_GWF-(1,26218)  3.53230250E-08                     1_GWF-(1,9692)
 --------------------------------------------------------------------------------------------------------------------------------------


 UBDSV1 SAVING     FLOW-JA-FACE ON UNIT   1020 AT TIME STEP      1, STRESS PERIOD      1
 UBDSV06 SAVING       DATA-SPDIS IN MODEL ML               PACKAGE NPF             CONNECTED TO MODEL ML               PACKAGE NPF              ON UNIT   1020 AT TIME STEP      1, STRESS PERIOD      1
 UBDSV06 SAVING              WEL IN MODEL ML               PACKAGE ML              CONNECTED TO MODEL ML               PACKAGE WEL_0            ON UNIT   1020 AT TIME STEP      1, STRESS PERIOD      1
 UBDSV06 SAVING              DRN IN MODEL ML               PACKAGE ML              CONNECTED TO MODEL ML               PACKAGE DRN_0            ON UNIT   1020 AT TIME STEP      1, STRESS PERIOD      1
 UBDSV06 SAVING              RIV IN MODEL ML               PACKAGE ML              CONNECTED TO MODEL ML               PACKAGE RIV_0            ON UNIT   1020 AT TIME STEP      1, STRESS PERIOD      1
 UBDSV06 SAVING              GHB IN MODEL ML               PACKAGE ML              CONNECTED TO MODEL ML               PACKAGE GHB_0            ON UNIT   1020 AT TIME STEP      1, STRESS PERIOD      1
 UBDSV06 SAVING              RCH IN MODEL ML               PACKAGE ML              CONNECTED TO MODEL ML               PACKAGE RCHA_0           ON UNIT   1020 AT TIME STEP      1, STRESS PERIOD      1

 HEAD WILL BE SAVED ON UNIT 1021 AT END OF TIME STEP    1, STRESS PERIOD    1


  VOLUME BUDGET FOR ENTIRE MODEL AT END OF TIME STEP    1, STRESS PERIOD   1
  ---------------------------------------------------------------------------------------------------

     CUMULATIVE VOLUME      L**3       RATES FOR THIS TIME STEP      L**3/T          PACKAGE NAME    
     ------------------                 ------------------------                     ----------------

           IN:                                      IN:
           ---                                      ---
                 WEL =           0.0000                   WEL =           0.0000     WEL_0           
                 DRN =           0.0000                   DRN =           0.0000     DRN_0           
                 RIV =          10.0165                   RIV =           1.0017     RIV_0           
                 GHB =          16.0998                   GHB =           1.6100     GHB_0           
                 RCH =           4.9581                   RCH =           0.4958     RCHA_0          

            TOTAL IN =          31.0744              TOTAL IN =           3.1074

          OUT:                                     OUT:
          ----                                     ----
                 WEL =           0.8421                   WEL =       8.4206E-02     WEL_0           
                 DRN =           2.3225                   DRN =           0.2322     DRN_0           
                 RIV =          27.5388                   RIV =           2.7539     RIV_0           
                 GHB =           0.3711                   GHB =       3.7108E-02     GHB_0           
                 RCH =           0.0000                   RCH =           0.0000     RCHA_0          

           TOTAL OUT =          31.0744             TOTAL OUT =           3.1074

            IN - OUT =      -1.9241E-05              IN - OUT =      -1.9241E-06

 PERCENT DISCREPANCY =          -0.00     PERCENT DISCREPANCY =          -0.00




         TIME SUMMARY AT END OF TIME STEP    1 IN STRESS PERIOD    1
                    SECONDS     MINUTES      HOURS       DAYS        YEARS
                    -----------------------------------------------------------
   TIME STEP LENGTH  10.000     0.16667     2.77778E-03 1.15741E-04 3.16881E-07
 STRESS PERIOD TIME  10.000     0.16667     2.77778E-03 1.15741E-04 3.16881E-07
         TOTAL TIME  10.000     0.16667     2.77778E-03 1.15741E-04 3.16881E-07


end timestep

