                                   MODFLOW 6
                U.S. GEOLOGICAL SURVEY MODULAR HYDROLOGIC MODEL
                          GROUNDWATER FLOW MODEL (GWF)
                            VERSION 6.2.2 07/30/2021

   MODFLOW 6 compiled Jul 31 2021 14:22:53 with IFORT compiler (ver. 19.10.3)

This software has been approved for release by the U.S. Geological 
Survey (USGS). Although the software has been subjected to rigorous 
review, the USGS reserves the right to update the software as needed 
pursuant to further analysis and review. No warranty, expressed or 
implied, is made by the USGS or the U.S. Government as to the 
functionality of the software and related material nor shall the 
fact of release constitute any such warranty. Furthermore, the 
software is released on condition that neither the USGS nor the U.S. 
Government shall be held liable for any damages resulting from its 
authorized or unauthorized use. Also refer to the USGS Water 
Resources Software User Rights Notice for complete use, copyright, 
and distribution information.


System command used to initiate simulation:
mf6

MODFLOW was compiled using uniform precision.

Real Variables
  KIND: 8
  TINY (smallest non-zero value):    2.225074-308
  HUGE (largest value):    1.797693+308
  PRECISION: 15
  BIT SIZE: 64

Integer Variables
  KIND: 4
  HUGE (largest value): 2147483647
  BIT SIZE: 32

Long Integer Variables
  KIND: 8
  HUGE (largest value): 9223372036854775807
  BIT SIZE: 64

Logical Variables
  KIND: 4
  BIT SIZE: 32
 

 OPENED ./ml.disv
 FILE TYPE:DISV6                  UNIT 1005   STATUS:OLD                 
 FORMAT:FORMATTED              ACCESS:SEQUENTIAL          
 ACTION:READ                


 OPENED ./ml.ic
 FILE TYPE:IC6                    UNIT 1006   STATUS:OLD                 
 FORMAT:FORMATTED              ACCESS:SEQUENTIAL          
 ACTION:READ                


 OPENED ./ml.npf
 FILE TYPE:NPF6                   UNIT 1007   STATUS:OLD                 
 FORMAT:FORMATTED              ACCESS:SEQUENTIAL          
 ACTION:READ                


 OPENED ./ml.ghb
 FILE TYPE:GHB6                   UNIT 1008   STATUS:OLD                 
 FORMAT:FORMATTED              ACCESS:SEQUENTIAL          
 ACTION:READ                


 OPENED ./ml.rcha
 FILE TYPE:RCH6                   UNIT 1009   STATUS:OLD                 
 FORMAT:FORMATTED              ACCESS:SEQUENTIAL          
 ACTION:READ                


 OPENED ./ml.obs
 FILE TYPE:OBS6                   UNIT 1010   STATUS:OLD                 
 FORMAT:FORMATTED              ACCESS:SEQUENTIAL          
 ACTION:READ                


 OPENED ./ml.oc
 FILE TYPE:OC6                    UNIT 1011   STATUS:OLD                 
 FORMAT:FORMATTED              ACCESS:SEQUENTIAL          
 ACTION:READ                


 OPENED ml.wel
 FILE TYPE:WEL6                   UNIT 1012   STATUS:OLD                 
 FORMAT:FORMATTED              ACCESS:SEQUENTIAL          
 ACTION:READ                


 OPENED ml.drn
 FILE TYPE:DRN6                   UNIT 1013   STATUS:OLD                 
 FORMAT:FORMATTED              ACCESS:SEQUENTIAL          
 ACTION:READ                


 OPENED ml.riv
 FILE TYPE:RIV6                   UNIT 1014   STATUS:OLD                 
 FORMAT:FORMATTED              ACCESS:SEQUENTIAL          
 ACTION:READ                


 DISV -- VERTEX GRID DISCRETIZATION PACKAGE, VERSION 1 : 12/23/2015 - INPUT READ FROM UNIT 1005


 # File generated by Flopy version 3.3.5 on 06/01/2022 at 18:12:33.

 PROCESSING DISCRETIZATION OPTIONS
    MODEL LENGTH UNIT IS METERS
    XORIGIN SPECIFIED AS     405575.681000000    
    YORIGIN SPECIFIED AS     6423306.54000000    
 END OF DISCRETIZATION OPTIONS

 PROCESSING DISCRETIZATION DIMENSIONS
   NLAY = 1
   NCPL = 26674
   NVERT = 27090
 END OF DISCRETIZATION DIMENSIONS

 PROCESSING GRIDDATA
 END PROCESSING GRIDDATA

 PROCESSING VERTICES
   SUCCESSFULLY READ 27090 (X,Y) COORDINATES
   MINIMUM X COORDINATE =     405575.681000000    
   MAXIMUM X COORDINATE =     413975.681000000    
   MINIMUM Y COORDINATE =     6423306.54000000    
   MAXIMUM Y COORDINATE =     6432506.54000000    
 END PROCESSING VERTICES

 PROCESSING CELL2D
   SUCCESSFULLY READ 26674 CELL2D INFORMATION ENTRIES
   MINIMUM X CELL CENTER =     405675.681000000    
   MAXIMUM X CELL CENTER =     413875.681000000    
   MINIMUM Y CELL CENTER =     6423406.54000000    
   MAXIMUM Y CELL CENTER =     6432406.54000000    
   MAXIMUM NUMBER OF CELL2D VERTICES IS 6 FOR CELL 208
 END PROCESSING VERTICES

 NPF -- NODE PROPERTY FLOW PACKAGE, VERSION 1, 3/30/2015 INPUT READ FROM UNIT 1007


 # File generated by Flopy version 3.3.5 on 06/01/2022 at 18:12:35.
 PROCESSING NPF OPTIONS
    CELL-BY-CELL FLOW INFORMATION WILL BE SAVED TO BINARY FILE WHENEVER ICBCFL IS NOT ZERO.
    SPECIFIC DISCHARGE WILL BE CALCULATED AT CELL CENTERS AND WRITTEN TO DATA-SPDIS IN BUDGET FILE WHEN REQUESTED.
 END OF NPF OPTIONS

 WEL   -- WEL PACKAGE, VERSION 8, 2/22/2014 INPUT READ FROM UNIT 1012
 # File generated by Flopy version 3.3.5 on 06/01/2022 at 18:12:36.

 PROCESSING WEL OPTIONS
    WEL BOUNDARIES HAVE NAMES IN LAST COLUMN.
    FLOWS WILL BE SAVED TO BUDGET FILE SPECIFIED IN OUTPUT CONTROL
 END OF WEL OPTIONS

 PROCESSING WEL DIMENSIONS
    MAXBOUND =       9
 END OF WEL DIMENSIONS

 DRN   -- DRN PACKAGE, VERSION 8, 2/22/2014 INPUT READ FROM UNIT 1013
 # File generated by Flopy version 3.3.5 on 06/01/2022 at 18:12:36.

 PROCESSING DRN OPTIONS
    DRN BOUNDARIES HAVE NAMES IN LAST COLUMN.
    FLOWS WILL BE SAVED TO BUDGET FILE SPECIFIED IN OUTPUT CONTROL

 OPENED ml.drn.obs
 FILE TYPE:OBS   UNIT 1016   STATUS:OLD                 
 FORMAT:FORMATTED              ACCESS:SEQUENTIAL          
 ACTION:READ                

 END OF DRN OPTIONS

 PROCESSING DRN DIMENSIONS
    MAXBOUND =     133
 END OF DRN DIMENSIONS

 RIV   -- RIV PACKAGE, VERSION 8, 2/22/2014 INPUT READ FROM UNIT 1014
 # File generated by Flopy version 3.3.5 on 06/01/2022 at 18:12:36.

 PROCESSING RIV OPTIONS
    AUXILIARY RIV VARIABLE: FID             
    RIV BOUNDARIES HAVE NAMES IN LAST COLUMN.
    FLOWS WILL BE SAVED TO BUDGET FILE SPECIFIED IN OUTPUT CONTROL
 END OF RIV OPTIONS

 PROCESSING RIV DIMENSIONS
    MAXBOUND =     794
 END OF RIV DIMENSIONS

 GHB   -- GHB PACKAGE, VERSION 8, 2/22/2014 INPUT READ FROM UNIT 1008
 # File generated by Flopy version 3.3.5 on 06/01/2022 at 18:12:35.

 PROCESSING GHB OPTIONS
    GHB BOUNDARIES HAVE NAMES IN LAST COLUMN.
    FLOWS WILL BE SAVED TO BUDGET FILE SPECIFIED IN OUTPUT CONTROL
 END OF GHB OPTIONS

 PROCESSING GHB DIMENSIONS
    MAXBOUND =     153
 END OF GHB DIMENSIONS

 RCH   -- RCH PACKAGE, VERSION 8, 2/22/2014 INPUT READ FROM UNIT 1009
 # File generated by Flopy version 3.3.5 on 06/01/2022 at 18:12:35.

 PROCESSING RCH OPTIONS
    RECHARGE INPUT WILL BE READ AS ARRAY(S).
    FLOWS WILL BE SAVED TO BUDGET FILE SPECIFIED IN OUTPUT CONTROL
 END OF RCH OPTIONS

 IC -- INITIAL CONDITIONS PACKAGE, VERSION 8, 3/28/2015 INPUT READ FROM UNIT 1006
 # File generated by Flopy version 3.3.5 on 06/01/2022 at 18:12:35.
 PROCESSING GRIDDATA

     INITIAL HEAD =   15.00000    
 END PROCESSING GRIDDATA
 PROCESSING GRIDDATA

                ICELLTYPE = 0

 OPENED ../com_ext/k.txt
 FILE TYPE:OPEN/CLOSE   UNIT 1017   STATUS:OLD                 
 FORMAT:FORMATTED              ACCESS:SEQUENTIAL          
 ACTION:READ                

 K33 not provided.  Assuming K33 = K.
 K22 not provided.  Assuming K22 = K.
 END PROCESSING GRIDDATA

The observation utility is active for "ML"
 # File generated by Flopy version 3.3.5 on 06/01/2022 at 18:12:36.

Processing observation options:

Text output number of digits of precision set to: 10
The PRINT_INPUT option has been specified.


 OBSERVATIONS READ FROM FILE "ml.obs"
 ----------------------------------------------------------------------------------------------------------------------------------------------------------------------------------------------------------------------------
 NAME                                     TYPE                                       TIME         LOCATION DATA                              OUTPUT FILENAME                                                                 
 ----------------------------------------------------------------------------------------------------------------------------------------------------------------------------------------------------------------------------
 PRG                                      CONTINUOUS  HEAD                           ALL TIMES    "1 16523"                                  sim/hds.csv                                                                     
 P8                                       CONTINUOUS  HEAD                           ALL TIMES    "1 10323"                                  sim/hds.csv                                                                     
 P24                                      CONTINUOUS  HEAD                           ALL TIMES    "1 9594"                                   sim/hds.csv                                                                     
 P25                                      CONTINUOUS  HEAD                           ALL TIMES    "1 13966"                                  sim/hds.csv                                                                     
 P32                                      CONTINUOUS  HEAD                           ALL TIMES    "1 15787"                                  sim/hds.csv                                                                     
 P33                                      CONTINUOUS  HEAD                           ALL TIMES    "1 15825"                                  sim/hds.csv                                                                     
 PF                                       CONTINUOUS  HEAD                           ALL TIMES    "1 21048"                                  sim/hds.csv                                                                     
 PH                                       CONTINUOUS  HEAD                           ALL TIMES    "1 20781"                                  sim/hds.csv                                                                     
 PZHM1                                    CONTINUOUS  HEAD                           ALL TIMES    "1 14521"                                  sim/hds.csv                                                                     
 P26                                      CONTINUOUS  HEAD                           ALL TIMES    "1 13141"                                  sim/hds.csv                                                                     
 P27                                      CONTINUOUS  HEAD                           ALL TIMES    "1 8465"                                   sim/hds.csv                                                                     
 P28                                      CONTINUOUS  HEAD                           ALL TIMES    "1 8924"                                   sim/hds.csv                                                                     
 P29                                      CONTINUOUS  HEAD                           ALL TIMES    "1 4524"                                   sim/hds.csv                                                                     
 P30                                      CONTINUOUS  HEAD                           ALL TIMES    "1 5255"                                   sim/hds.csv                                                                     
 R20                                      CONTINUOUS  HEAD                           ALL TIMES    "1 10676"                                  sim/hds.csv                                                                     
 R21                                      CONTINUOUS  HEAD                           ALL TIMES    "1 10403"                                  sim/hds.csv                                                                     
 P34                                      CONTINUOUS  HEAD                           ALL TIMES    "1 15131"                                  sim/hds.csv                                                                     
 P37                                      CONTINUOUS  HEAD                           ALL TIMES    "1 15755"                                  sim/hds.csv                                                                     
 P38                                      CONTINUOUS  HEAD                           ALL TIMES    "1 15045"                                  sim/hds.csv                                                                     
 P39                                      CONTINUOUS  HEAD                           ALL TIMES    "1 9637"                                   sim/hds.csv                                                                     
 P40                                      CONTINUOUS  HEAD                           ALL TIMES    "1 9312"                                   sim/hds.csv                                                                     
 AP1                                      CONTINUOUS  HEAD                           ALL TIMES    "1 9702"                                   sim/hds.csv                                                                     
 RCK1                                     CONTINUOUS  HEAD                           ALL TIMES    "1 15900"                                  sim/hds.csv                                                                     
 RCK2                                     CONTINUOUS  HEAD                           ALL TIMES    "1 15199"                                  sim/hds.csv                                                                     
 P23                                      CONTINUOUS  HEAD                           ALL TIMES    "1 6409"                                   sim/hds.csv                                                                     
 ----------------------------------------------------------------------------------------------------------------------------------------------------------------------------------------------------------------------------


    BINARY GRID INFORMATION WILL BE WRITTEN TO:
      UNIT NUMBER: 1019
      FILE NAME: /srv/common/ptrack/case_study/pst/ml_10/./ml.disv.grb

 OPENED /srv/common/ptrack/case_study/pst/ml_10/./ml.disv.grb
 FILE TYPE:DATA(BINARY)   UNIT 1019   STATUS:REPLACE             
 FORMAT:UNFORMATTED            ACCESS:STREAM              
 ACTION:READWRITE           

      THE LAST TIME STEP WILL BE PRINTED
      THE LAST TIME STEP WILL BE PRINTED
 # File generated by Flopy version 3.3.5 on 06/01/2022 at 18:12:36.

 PROCESSING OC OPTIONS

    BUDGET INFORMATION WILL BE WRITTEN TO:
      UNIT NUMBER: 1020
      FILE NAME: ml.cbc

 OPENED ml.cbc
 FILE TYPE:DATA(BINARY)   UNIT 1020   STATUS:REPLACE             
 FORMAT:UNFORMATTED            ACCESS:STREAM              
 ACTION:READWRITE           

    HEAD INFORMATION WILL BE WRITTEN TO:
      UNIT NUMBER: 1021
      FILE NAME: ml.hds

 OPENED ml.hds
 FILE TYPE:DATA(BINARY)   UNIT 1021   STATUS:REPLACE             
 FORMAT:UNFORMATTED            ACCESS:STREAM              
 ACTION:READWRITE           

 END OF OC OPTIONS

The observation utility is active for "DRN_0"
 # File generated by Flopy version 3.3.5 on 06/01/2022 at 18:12:36.

Processing observation options:



start timestep kper="1" kstp="1" mode="normal"


 BEGIN READING OUTPUT CONTROL FOR STRESS PERIOD 1
      THE LAST TIME STEP WILL BE SAVED
      THE LAST TIME STEP WILL BE SAVED

 END READING OUTPUT CONTROL FOR STRESS PERIOD 1

 OPENED ext/wel_spd_10_1.txt
 FILE TYPE:OPEN/CLOSE   UNIT 1023   STATUS:OLD                 
 FORMAT:FORMATTED              ACCESS:SEQUENTIAL          
 ACTION:READ                


 OPENED ext/drn_spd_10_1.txt
 FILE TYPE:OPEN/CLOSE   UNIT 1024   STATUS:OLD                 
 FORMAT:FORMATTED              ACCESS:SEQUENTIAL          
 ACTION:READ                


 OPENED ext/riv_spd_10_1.txt
 FILE TYPE:OPEN/CLOSE   UNIT 1025   STATUS:OLD                 
 FORMAT:FORMATTED              ACCESS:SEQUENTIAL          
 ACTION:READ                


 OPENED ../com_ext/ghb_spd_1.txt
 FILE TYPE:OPEN/CLOSE   UNIT 1026   STATUS:OLD                 
 FORMAT:FORMATTED              ACCESS:SEQUENTIAL          
 ACTION:READ                


 OPENED ../com_ext/rech_spd_1.txt
 FILE TYPE:OPEN/CLOSE   UNIT 1027   STATUS:OLD                 
 FORMAT:FORMATTED              ACCESS:SEQUENTIAL          
 ACTION:READ                


 SLN_1 INNER ITERATION SUMMARY
 --------------------------------------------------------------------------------------------------------------------------------------
      TOTAL      OUTER      INNER                                                            MAXIMUM                                   
  ITERATION  ITERATION  ITERATION  MAXIMUM CHANGE      MAXIMUM CHANGE MODEL-(CELLID)        RESIDUAL    MAXIMUM RESIDUAL MODEL-(CELLID)
 --------------------------------------------------------------------------------------------------------------------------------------
          1          1          1       22.574978                    1_GWF-(1,26517)      0.19386512                    1_GWF-(1,11179)
          2          1          2       38.513948                    1_GWF-(1,26516)     -0.29594757                    1_GWF-(1,11179)
          3          1          3       49.420106                    1_GWF-(1,26515)     -0.23339717                    1_GWF-(1,11161)
          4          1          4       30.318330                    1_GWF-(1,26513)      0.19385630                    1_GWF-(1,11208)
          5          1          5       25.122088                    1_GWF-(1,26647)      0.16325704                    1_GWF-(1,11202)
          6          1          6       29.372706                    1_GWF-(1,26649)     -0.17727852                    1_GWF-(1,11207)
          7          1          7       23.133152                    1_GWF-(1,26622)      0.17364325                    1_GWF-(1,10966)
          8          1          8       17.861983                    1_GWF-(1,26623)      0.15057312                    1_GWF-(1,10960)
          9          1          9       13.893080                    1_GWF-(1,26543)  7.73207608E-02                    1_GWF-(1,10960)
         10          1         10       13.377498                    1_GWF-(1,26486)  8.12272792E-02                    1_GWF-(1,10967)
         11          1         11       9.9763552                    1_GWF-(1,26487)      0.11145599                    1_GWF-(1,10966)
         12          1         12       6.8720223                    1_GWF-(1,26350)  9.22680449E-02                    1_GWF-(1,10960)
         13          1         13       5.8962253                    1_GWF-(1,26422)  6.28351663E-02                    1_GWF-(1,10960)
         14          1         14       4.0321114                    1_GWF-(1,26350)  6.14483602E-02                    1_GWF-(1,10966)
         15          1         15       2.6879606                    1_GWF-(1,26218)  8.32924514E-02                    1_GWF-(1,10966)
         16          1         16      -2.5087430                    1_GWF-(1,26622)  6.79956233E-02                    1_GWF-(1,10960)
         17          1         17      -3.1882834                    1_GWF-(1,26623)  4.41402428E-02                    1_GWF-(1,11206)
         18          1         18      -3.9677406                    1_GWF-(1,26543)  5.51209360E-02                    1_GWF-(1,10967)
         19          1         19      -5.3447749                    1_GWF-(1,26588)  6.45450552E-02                    1_GWF-(1,10966)
         20          1         20      -4.2016163                    1_GWF-(1,26543)  4.57591406E-02                    1_GWF-(1,10960)
         21          1         21      -3.8155241                    1_GWF-(1,26487) -3.67865801E-02                    1_GWF-(1,11194)
         22          1         22      -4.0934855                    1_GWF-(1,26486)  4.16185254E-02                    1_GWF-(1,10966)
         23          1         23      -3.7423489                    1_GWF-(1,26487)  3.41951656E-02                    1_GWF-(1,10960)
         24          1         24       3.7690617                    1_GWF-(1,11575)  3.02578525E-02                    1_GWF-(1,14799)
         25          1         25       3.1840688                    1_GWF-(1,26420)  2.94183782E-02                    1_GWF-(1,10967)
         26          1         26       3.5457747                    1_GWF-(1,26487) -3.39228923E-02                    1_GWF-(1,11206)
         27          1         27       3.4580188                    1_GWF-(1,26420)  3.60901665E-02                    1_GWF-(1,11206)
         28          1         28       2.5062347                    1_GWF-(1,26543)  3.73593578E-02                    1_GWF-(1,14799)
         29          1         29       2.2102040                    1_GWF-(1,11706)  3.23213684E-02                    1_GWF-(1,10966)
         30          1         30      -2.0289464                    1_GWF-(1,11618)  2.82215762E-02                    1_GWF-(1,14799)
         31          1         31      -2.3155164                    1_GWF-(1,11707) -3.58769373E-02                    1_GWF-(1,11206)
         32          1         32       2.5759064                    1_GWF-(1,26422)  3.75737485E-02                    1_GWF-(1,14799)
         33          1         33      -2.5092385                    1_GWF-(1,26422)  3.32069777E-02                    1_GWF-(1,14798)
         34          1         34      -2.5213833                    1_GWF-(1,26350)  3.31618662E-02                    1_GWF-(1,14799)
         35          1         35      -2.4391045                    1_GWF-(1,26422)  2.74911756E-02                    1_GWF-(1,14801)
         36          1         36      -1.9024113                    1_GWF-(1,26544)  2.97213376E-02                    1_GWF-(1,14799)
         37          1         37      -1.4644838                    1_GWF-(1,26486)  3.13629257E-02                    1_GWF-(1,14799)
         38          1         38      -1.6483181                    1_GWF-(1,11621)  2.33404275E-02                    1_GWF-(1,14801)
         39          1         39      -1.3476696                    1_GWF-(1,26649)  3.13569311E-02                    1_GWF-(1,14799)
         40          1         40       1.8036400                    1_GWF-(1,11621) -3.55511840E-02                    1_GWF-(1,11206)
         41          1         41       1.0268872                    1_GWF-(1,11569)  3.52666605E-02                    1_GWF-(1,11206)
         42          1         42      -1.5510780                    1_GWF-(1,11619) -3.99925994E-02                    1_GWF-(1,11206)
         43          1         43       1.2263425                    1_GWF-(1,26350)  3.99153516E-02                    1_GWF-(1,14799)
         44          1         44       1.2126532                    1_GWF-(1,26217) -4.03693961E-02                    1_GWF-(1,11206)
         45          1         45      -1.4541309                    1_GWF-(1,11622)  3.87918527E-02                    1_GWF-(1,11206)
         46          1         46      0.80041366                    1_GWF-(1,11384)  4.67797532E-02                    1_GWF-(1,14801)
         47          1         47      -1.1438247                    1_GWF-(1,26217)  7.27260004E-02                    1_GWF-(1,14799)
         48          1         48      -1.2598334                    1_GWF-(1,26218) -6.21473984E-02                    1_GWF-(1,14799)
         49          1         49      -1.4448777                    1_GWF-(1,26217)  9.99879628E-02                    1_GWF-(1,14799)
         50          1         50      -1.5832430                    1_GWF-(1,26218)      0.12138713                    1_GWF-(1,14801)
         51          2          1      -167.01857                    1_GWF-(1,26519)     -0.24136069                    1_GWF-(1,26458)
         52          2          2      -63.553359                    1_GWF-(1,26513)  5.81010977E-02                    1_GWF-(1,26458)
         53          2          3      -38.554482                    1_GWF-(1,26637)  7.08210703E-02                    1_GWF-(1,14799)
         54          2          4      -35.328089                    1_GWF-(1,26665)  5.81499783E-02                    1_GWF-(1,14801)
         55          2          5      -23.374084                    1_GWF-(1,26622)  8.74837210E-02                    1_GWF-(1,14799)
         56          2          6      -19.469319                    1_GWF-(1,26588)  8.03382379E-02                    1_GWF-(1,14801)
         57          2          7      -18.599362                    1_GWF-(1,26543)      0.12858135                    1_GWF-(1,14799)
         58          2          8      -13.388344                    1_GWF-(1,26486)     -0.12742607                    1_GWF-(1,14799)
         59          2          9      -9.8223918                    1_GWF-(1,26487)      0.12562961                    1_GWF-(1,14799)
         60          2         10      -7.2972167                    1_GWF-(1,26421)  5.40332008E-02                    1_GWF-(1,14801)
         61          2         11      -7.1942858                    1_GWF-(1,26350)  2.47084870E-02                    1_GWF-(1,14801)
         62          2         12      -4.3297756                    1_GWF-(1,26217)  5.45382075E-02                    1_GWF-(1,14799)
         63          2         13      -2.5024610                    1_GWF-(1,26622)  5.92566105E-02                    1_GWF-(1,14801)
         64          2         14      -1.7972201                    1_GWF-(1,26623)  4.84728488E-02                    1_GWF-(1,14799)
         65          2         15      -1.7148652                    1_GWF-(1,26622)  1.94379049E-02                    1_GWF-(1,14801)
         66          2         16      -1.5948727                    1_GWF-(1,25728)  5.04061913E-02                    1_GWF-(1,14801)
         67          2         17       2.0595848                    1_GWF-(1,26350)      0.10249762                    1_GWF-(1,14799)
         68          2         18       1.8706459                    1_GWF-(1,26422)  8.78876056E-02                    1_GWF-(1,14801)
         69          2         19       1.9978698                    1_GWF-(1,26588)  7.96989757E-02                    1_GWF-(1,14799)
         70          2         20       1.8260561                    1_GWF-(1,26543)  1.34634221E-02                    1_GWF-(1,14801)
         71          2         21       1.9547215                    1_GWF-(1,26588)  7.89119521E-02                    1_GWF-(1,14801)
         72          2         22       2.2796934                    1_GWF-(1,26543)      0.14030863                    1_GWF-(1,14799)
         73          2         23       1.7863024                    1_GWF-(1,26544)      0.15365019                    1_GWF-(1,14801)
         74          2         24      -2.6936632                    1_GWF-(1,26487)      0.12093168                    1_GWF-(1,14799)
         75          2         25      -3.2468335                    1_GWF-(1,26486)  2.10376759E-02                    1_GWF-(1,14799)
         76          2         26      -3.4684323                    1_GWF-(1,26487)      0.14121203                    1_GWF-(1,14801)
         77          2         27      -2.4385619                    1_GWF-(1,26420)      0.25796399                    1_GWF-(1,14799)
         78          2         28       1.7226742                    1_GWF-(1,26217)      0.21688861                    1_GWF-(1,14801)
         79          2         29      -1.4895702                    1_GWF-(1,26327)      0.22920285                    1_GWF-(1,14799)
         80          2         30       1.5022438                    1_GWF-(1,26420)      0.18579527                    1_GWF-(1,14801)
         81          2         31      -1.1355104                    1_GWF-(1,26674)      0.17494959                    1_GWF-(1,14799)
         82          2         32      -1.0671612                    1_GWF-(1,26422)      0.14283849                    1_GWF-(1,14801)
         83          2         33      -1.0994812                    1_GWF-(1,26350)      0.11444745                    1_GWF-(1,14800)
         84          2         34      0.92411458                    1_GWF-(1,26350)      0.10082613                    1_GWF-(1,14801)
         85          2         35       1.3049551                    1_GWF-(1,26422)  7.09679494E-02                    1_GWF-(1,14800)
         86          2         36      0.87510349                    1_GWF-(1,26218)  4.93980060E-02                    1_GWF-(1,14801)
         87          2         37     -0.69745751                    1_GWF-(1,26350)  2.76216088E-02                    1_GWF-(1,14800)
         88          2         38      0.69203741                    1_GWF-(1,26350)  5.05224400E-02                    1_GWF-(1,14799)
         89          2         39      0.85234079                    1_GWF-(1,26422)  6.18831969E-02                    1_GWF-(1,14798)
         90          2         40     -0.87643848                    1_GWF-(1,26486)      0.12565858                    1_GWF-(1,14799)
         91          2         41     -0.93737741                    1_GWF-(1,26420)     -0.13193289                    1_GWF-(1,14799)
         92          2         42     -0.82745106                    1_GWF-(1,26421)      0.17862578                    1_GWF-(1,14799)
         93          2         43      0.91701541                    1_GWF-(1,26421)      0.15244188                    1_GWF-(1,14801)
         94          2         44     -0.72601090                    1_GWF-(1,26218)      0.15576855                    1_GWF-(1,14799)
         95          2         45     -0.99859982                    1_GWF-(1,26420)      0.12366947                    1_GWF-(1,14801)
         96          2         46      0.67913234                    1_GWF-(1,26217)  9.08028998E-02                    1_GWF-(1,14800)
         97          2         47     -0.67889965                    1_GWF-(1,26663)  8.81459550E-02                    1_GWF-(1,14801)
         98          2         48     -0.56611029                    1_GWF-(1,26218)  6.70318928E-02                    1_GWF-(1,14800)
         99          2         49     -0.62699381                    1_GWF-(1,22783)  7.33268414E-02                    1_GWF-(1,14801)
        100          2         50     -0.50651908                    1_GWF-(1,26604)  6.74455606E-02                    1_GWF-(1,14800)
        101          3          1     -0.31633352                    1_GWF-(1,11437)  3.30897514E-02                    1_GWF-(1,14801)
        102          3          2      0.51479742                    1_GWF-(1,22783)  8.81305971E-02                    1_GWF-(1,14800)
        103          3          3      0.50519149                    1_GWF-(1,26623)      0.11259402                    1_GWF-(1,14801)
        104          3          4      0.53341130                    1_GWF-(1,26649)  7.26512232E-02                    1_GWF-(1,14800)
        105          3          5      0.45940707                    1_GWF-(1,26421)      0.11552182                    1_GWF-(1,14801)
        106          3          6      0.39246546                    1_GWF-(1,26194)      0.13604276                    1_GWF-(1,14800)
        107          3          7     -0.46883573                    1_GWF-(1,26350)      0.12594640                    1_GWF-(1,14801)
        108          3          8     -0.59960813                    1_GWF-(1,26421)      0.10546600                    1_GWF-(1,14800)
        109          3          9      0.55377464                    1_GWF-(1,26422)      0.12940364                    1_GWF-(1,14801)
        110          3         10      0.58412783                    1_GWF-(1,26350)  8.55365515E-02                    1_GWF-(1,14800)
        111          3         11      0.45531970                    1_GWF-(1,26486)  6.10241358E-02                    1_GWF-(1,14801)
        112          3         12     -0.58088595                    1_GWF-(1,26422)  3.54037369E-02                    1_GWF-(1,14800)
        113          3         13      0.39207169                    1_GWF-(1,26422)  3.12378208E-02                    1_GWF-(1,10966)
        114          3         14      0.40598683                    1_GWF-(1,26350)  3.85331330E-02                    1_GWF-(1,14799)
        115          3         15     -0.51159788                    1_GWF-(1,26350)  3.88388439E-02                    1_GWF-(1,10966)
        116          3         16     -0.53249014                    1_GWF-(1,26422)  6.32871179E-02                    1_GWF-(1,14799)
        117          3         17      0.44006833                    1_GWF-(1,26422)  4.62025011E-02                    1_GWF-(1,14800)
        118          3         18      0.46065902                    1_GWF-(1,26350)  6.40846988E-02                    1_GWF-(1,14801)
        119          3         19     -0.45414961                    1_GWF-(1,11438)  7.36551354E-02                    1_GWF-(1,14800)
        120          3         20      0.44875762                    1_GWF-(1,26659)  8.12773398E-02                    1_GWF-(1,14801)
        121          3         21     -0.47372604                    1_GWF-(1,26420)  7.37516960E-02                    1_GWF-(1,14800)
        122          3         22     -0.53930632                    1_GWF-(1,11438)  9.17834088E-02                    1_GWF-(1,14801)
        123          3         23     -0.50644792                    1_GWF-(1,26217)  8.06064888E-02                    1_GWF-(1,14800)
        124          3         24     -0.42963361                    1_GWF-(1,26421)  6.65241873E-02                    1_GWF-(1,14801)
        125          3         25      0.68452738                    1_GWF-(1,26487) -4.33950186E-02                    1_GWF-(1,10966)
        126          3         26      0.84822136                    1_GWF-(1,26420) -2.19817471E-02                    1_GWF-(1,14799)
        127          3         27      0.75863646                    1_GWF-(1,26487)  3.18571469E-02                    1_GWF-(1,14801)
        128          3         28     -0.55165440                    1_GWF-(1,26487)  4.29362431E-02                    1_GWF-(1,14800)
        129          3         29     -0.62667148                    1_GWF-(1,26486)  4.88613091E-02                    1_GWF-(1,14801)
        130          3         30     -0.58576496                    1_GWF-(1,26544)  3.54181026E-02                    1_GWF-(1,14799)
        131          3         31     -0.54046525                    1_GWF-(1,26486) -2.79044436E-02                    1_GWF-(1,14799)
        132          3         32      0.61714953                    1_GWF-(1,26543)  2.03233594E-02                    1_GWF-(1,14801)
        133          3         33     -0.60370400                    1_GWF-(1,26543)  3.64316674E-02                    1_GWF-(1,14800)
        134          3         34     -0.58128089                    1_GWF-(1,26588)  4.35400541E-02                    1_GWF-(1,10966)
        135          3         35      0.54326952                    1_GWF-(1,26588)  4.77816200E-02                    1_GWF-(1,14799)
        136          3         36      0.44145657                    1_GWF-(1,26665) -3.58501914E-02                    1_GWF-(1,14799)
        137          3         37      0.45671328                    1_GWF-(1,26623)  2.67126049E-02                    1_GWF-(1,14799)
        138          3         38      0.60850180                    1_GWF-(1,26622) -1.74690700E-02                    1_GWF-(1,10966)
        139          3         39      0.46597482                    1_GWF-(1,26649) -3.11007973E-02                    1_GWF-(1,14799)
        140          3         40     -0.45686762                    1_GWF-(1,26649)  4.70870666E-02                    1_GWF-(1,14799)
        141          3         41     -0.45226446                    1_GWF-(1,26622) -3.51068611E-02                    1_GWF-(1,14799)
        142          3         42     -0.57482455                    1_GWF-(1,26665)  1.26543283E-02                    1_GWF-(1,14799)
        143          3         43     -0.54892188                    1_GWF-(1,26666) -2.68477930E-02                    1_GWF-(1,10966)
        144          3         44     -0.42876039                    1_GWF-(1,26665) -3.65882161E-02                    1_GWF-(1,14799)
        145          3         45      0.55481826                    1_GWF-(1,26665)  5.85714568E-02                    1_GWF-(1,14799)
        146          3         46      0.46858657                    1_GWF-(1,26666) -5.73439421E-02                    1_GWF-(1,14799)
        147          3         47     -0.30881385                    1_GWF-(1,25816)  7.33236749E-02                    1_GWF-(1,14799)
        148          3         48     -0.28811973                    1_GWF-(1,26154) -6.09709364E-02                    1_GWF-(1,14799)
        149          3         49     -0.33297579                    1_GWF-(1,26649)  8.92215871E-02                    1_GWF-(1,14799)
        150          3         50     -0.36991580                    1_GWF-(1,26637) -6.95934647E-02                    1_GWF-(1,14799)
        151          4          1      -1.1554389                    1_GWF-(1,16215)  2.28376293E-02                    1_GWF-(1,14799)
        152          4          2     -0.89898393                    1_GWF-(1,16130) -7.27708558E-02                    1_GWF-(1,14799)
        153          4          3      0.43607945                    1_GWF-(1,16130)  9.85387682E-02                    1_GWF-(1,14799)
        154          4          4      0.42789538                    1_GWF-(1,16126) -6.93251495E-02                    1_GWF-(1,14799)
        155          4          5     -0.54942924                    1_GWF-(1,16130)  6.66422742E-02                    1_GWF-(1,14799)
        156          4          6      0.51294533                    1_GWF-(1,16130) -5.20627630E-02                    1_GWF-(1,14799)
        157          4          7      0.29757881                    1_GWF-(1,16811)  4.24115641E-02                    1_GWF-(1,14799)
        158          4          8     -0.30509333                    1_GWF-(1,26665) -1.83714926E-02                    1_GWF-(1,14799)
        159          4          9      0.32070362                    1_GWF-(1,26665)  6.15643569E-03                    1_GWF-(1,14800)
        160          4         10      0.31273123                    1_GWF-(1,26666)  2.65858813E-02                    1_GWF-(1,14799)
        161          4         11      0.30968528                    1_GWF-(1,26665) -3.23353318E-02                    1_GWF-(1,14799)
        162          4         12      0.24394260                    1_GWF-(1,26622)  2.98077268E-02                    1_GWF-(1,14799)
        163          4         13      0.25795302                    1_GWF-(1,26649)  1.13431147E-02                    1_GWF-(1,14801)
        164          4         14      0.29545365                    1_GWF-(1,26622) -9.60869628E-03                    1_GWF-(1,14799)
        165          4         15      0.24447465                    1_GWF-(1,26623)  2.83691424E-02                    1_GWF-(1,14799)
        166          4         16     -0.24403319                    1_GWF-(1,26623) -3.07299947E-02                    1_GWF-(1,14799)
        167          4         17     -0.20714051                    1_GWF-(1,26622)  2.61866395E-02                    1_GWF-(1,14799)
        168          4         18      0.22086408                    1_GWF-(1,11659)  1.40588772E-02                    1_GWF-(1,14801)
        169          4         19     -0.31974622                    1_GWF-(1,26543)  8.99505180E-03                    1_GWF-(1,14800)
        170          4         20     -0.36982469                    1_GWF-(1,26588)  1.67226497E-02                    1_GWF-(1,14799)
        171          4         21     -0.29571196                    1_GWF-(1,26543) -1.77001761E-02                    1_GWF-(1,14799)
        172          4         22      0.18168904                    1_GWF-(1,26486)  1.67157140E-02                    1_GWF-(1,14799)
        173          4         23      0.18783387                    1_GWF-(1,26487)  1.53313331E-02                    1_GWF-(1,14801)
        174          4         24      0.24704250                    1_GWF-(1,26486)  1.13916409E-02                    1_GWF-(1,14800)
        175          4         25      0.27748404                    1_GWF-(1,26487)  1.15792718E-02                    1_GWF-(1,14799)
        176          4         26      0.24309762                    1_GWF-(1,26420) -1.14201686E-02                    1_GWF-(1,14799)
        177          4         27      0.22207646                    1_GWF-(1,26487)  1.67681037E-02                    1_GWF-(1,14800)
        178          4         28      0.15768352                    1_GWF-(1,26420)  2.22517352E-02                    1_GWF-(1,14801)
        179          4         29      0.19372812                    1_GWF-(1,26218)  2.18850742E-02                    1_GWF-(1,14800)
        180          4         30      0.12864311                    1_GWF-(1,26217)  2.28631505E-02                    1_GWF-(1,14801)
        181          4         31      0.12037248                    1_GWF-(1,26486)  1.98870240E-02                    1_GWF-(1,14800)
        182          4         32     -0.10198177                    1_GWF-(1,26623)  2.15390710E-02                    1_GWF-(1,14801)
        183          4         33     -0.11639348                    1_GWF-(1,26544)  1.76234749E-02                    1_GWF-(1,14800)
        184          4         34     -0.15674376                    1_GWF-(1,26486)  1.82044220E-02                    1_GWF-(1,14801)
        185          4         35     -0.15511099                    1_GWF-(1,26350)  1.15441663E-02                    1_GWF-(1,14800)
        186          4         36     -0.18775628                    1_GWF-(1,26422)  1.31508651E-02                    1_GWF-(1,14799)
        187          4         37     -0.15142502                    1_GWF-(1,26350)  7.23367638E-03                    1_GWF-(1,14798)
        188          4         38     -0.13075447                    1_GWF-(1,26422)  9.59187143E-03                    1_GWF-(1,14799)
        189          4         39     -0.11874536                    1_GWF-(1,26350)  5.39971498E-03                    1_GWF-(1,14801)
        190          4         40     -0.10390272                    1_GWF-(1,26422)  8.16818433E-03                    1_GWF-(1,14800)
        191          4         41 -8.90043330E-02                    1_GWF-(1,26350)  1.34048828E-02                    1_GWF-(1,14801)
        192          4         42  8.78696864E-02                    1_GWF-(1,26350)  1.48463229E-02                    1_GWF-(1,14800)
        193          4         43      0.11747690                    1_GWF-(1,26422)  1.82890812E-02                    1_GWF-(1,14801)
        194          4         44      0.13345275                    1_GWF-(1,26350)  1.73099355E-02                    1_GWF-(1,14800)
        195          4         45      0.12217126                    1_GWF-(1,26422)  2.06021047E-02                    1_GWF-(1,14801)
        196          4         46  8.84328844E-02                    1_GWF-(1,26420)  1.82796812E-02                    1_GWF-(1,14800)
        197          4         47  8.17925725E-02                    1_GWF-(1,26486)  1.95000626E-02                    1_GWF-(1,14801)
        198          4         48  6.87647022E-02                    1_GWF-(1,26589)  1.43108300E-02                    1_GWF-(1,14800)
        199          4         49 -7.10359061E-02                    1_GWF-(1,26420)  1.56893620E-02                    1_GWF-(1,14801)
        200          4         50 -7.67974088E-02                    1_GWF-(1,26218)  1.21973167E-02                    1_GWF-(1,14800)
        201          5          1 -9.92512222E-02                    1_GWF-(1,11439)  4.89728272E-03                    1_GWF-(1,14801)
        202          5          2 -5.97402433E-02                    1_GWF-(1,26537)  1.69323898E-02                    1_GWF-(1,14800)
        203          5          3  5.89457174E-02                    1_GWF-(1,26218)  1.92385661E-02                    1_GWF-(1,14801)
        204          5          4 -8.23684744E-02                    1_GWF-(1,26486)  1.05903479E-02                    1_GWF-(1,14800)
        205          5          5 -9.55442936E-02                    1_GWF-(1,11436)  1.57261837E-02                    1_GWF-(1,14801)
        206          5          6  9.74868667E-02                    1_GWF-(1,11436) -1.74260494E-02                    1_GWF-(1,14801)
        207          5          7     -0.10489982                    1_GWF-(1,26350)  1.42892017E-02                    1_GWF-(1,14801)
        208          5          8     -0.10370340                    1_GWF-(1,11436)  1.18577182E-02                    1_GWF-(1,14800)
        209          5          9      0.13104885                    1_GWF-(1,11436)  1.36549131E-02                    1_GWF-(1,14801)
        210          5         10  7.57918665E-02                    1_GWF-(1,26350)  8.30035240E-03                    1_GWF-(1,14800)
        211          5         11  7.89949115E-02                    1_GWF-(1,26422)  5.43127140E-03                    1_GWF-(1,14801)
        212          5         12      0.13311562                    1_GWF-(1,11436)  6.39920383E-03                    1_GWF-(1,14799)
        213          5         13      0.11365477                    1_GWF-(1,26422)  4.97690009E-03                    1_GWF-(1,14798)
        214          5         14      0.11081877                    1_GWF-(1,26350)  7.41750128E-03                    1_GWF-(1,14799)
        215          5         15      0.10510586                    1_GWF-(1,11436) -6.37079533E-03                    1_GWF-(1,14799)
        216          5         16  9.97514395E-02                    1_GWF-(1,11416)  9.71519512E-03                    1_GWF-(1,14799)
        217          5         17  7.82718616E-02                    1_GWF-(1,26486)  7.55782864E-03                    1_GWF-(1,14800)
        218          5         18  9.89086496E-02                    1_GWF-(1,11436)  9.59053975E-03                    1_GWF-(1,14801)
        219          5         19      0.14366040                    1_GWF-(1,11416)  9.77683219E-03                    1_GWF-(1,14800)
        220          5         20 -9.18092494E-02                    1_GWF-(1,26486)  1.07835487E-02                    1_GWF-(1,14801)
        221          5         21 -8.26860563E-02                    1_GWF-(1,11415)  9.09894367E-03                    1_GWF-(1,14800)
        222          5         22      0.13976870                    1_GWF-(1,11416)  8.65522421E-03                    1_GWF-(1,14801)
        223          5         23     -0.12316647                    1_GWF-(1,26588)  4.74700043E-03                    1_GWF-(1,14799)
        224          5         24     -0.11370949                    1_GWF-(1,26543)  4.94453104E-03                    1_GWF-(1,14800)
        225          5         25      0.12449509                    1_GWF-(1,11416)  9.51005712E-03                    1_GWF-(1,14801)
        226          5         26  7.55973001E-02                    1_GWF-(1,26218) -7.77114404E-03                    1_GWF-(1,14801)
        227          5         27 -9.70410132E-02                    1_GWF-(1,11416)  7.24890058E-03                    1_GWF-(1,14801)
        228          5         28      0.11788464                    1_GWF-(1,11416)  6.49286524E-03                    1_GWF-(1,14799)
        229          5         29  7.00654651E-02                    1_GWF-(1,26622) -4.98848148E-03                    1_GWF-(1,14799)
        230          5         30 -8.04766240E-02                    1_GWF-(1,11416)  4.26715877E-03                    1_GWF-(1,14799)
        231          5         31      0.10506236                    1_GWF-(1,26588)  3.66094889E-03                    1_GWF-(1,14800)
        232          5         32  7.22872417E-02                    1_GWF-(1,26543)  4.99434005E-03                    1_GWF-(1,14801)
        233          5         33 -9.92564143E-02                    1_GWF-(1,11416)  6.53832273E-03                    1_GWF-(1,14799)
        234          5         34      0.10040209                    1_GWF-(1,11416) -7.54625449E-03                    1_GWF-(1,14799)
        235          5         35  4.95792394E-02                    1_GWF-(1,25869)  8.06793309E-03                    1_GWF-(1,14799)
        236          5         36 -7.97947368E-02                    1_GWF-(1,11416) -4.15302570E-03                    1_GWF-(1,14799)
        237          5         37  7.91144041E-02                    1_GWF-(1,11416)  2.36440085E-03                    1_GWF-(1,14801)
        238          5         38  5.59465888E-02                    1_GWF-(1,26622)  4.43988811E-03                    1_GWF-(1,14799)
        239          5         39 -8.75549113E-02                    1_GWF-(1,11416) -6.04674230E-03                    1_GWF-(1,14799)
        240          5         40  6.66286606E-02                    1_GWF-(1,11416)  7.66312343E-03                    1_GWF-(1,14799)
        241          5         41 -6.54666749E-02                    1_GWF-(1,26487) -3.76529784E-03                    1_GWF-(1,14799)
        242          5         42 -7.09152189E-02                    1_GWF-(1,11416)  2.00221811E-03                    1_GWF-(1,14801)
        243          5         43 -4.80342461E-02                    1_GWF-(1,26666)  5.38565305E-03                    1_GWF-(1,14799)
        244          5         44  4.24552923E-02                    1_GWF-(1,11416) -7.00960394E-03                    1_GWF-(1,14799)
        245          5         45 -7.54174278E-02                    1_GWF-(1,11416)  9.35141704E-03                    1_GWF-(1,14799)
        246          5         46  6.02974957E-02                    1_GWF-(1,16130) -9.65757991E-03                    1_GWF-(1,14799)
        247          5         47 -4.03455663E-02                    1_GWF-(1,16130)  1.24936373E-02                    1_GWF-(1,14799)
        248          5         48 -5.07774332E-02                    1_GWF-(1,11416) -1.06080516E-02                    1_GWF-(1,14799)
        249          5         49      0.10021944                    1_GWF-(1,16130)  7.00072778E-03                    1_GWF-(1,14799)
        250          5         50 -4.00684480E-02                    1_GWF-(1,11458) -9.76256702E-03                    1_GWF-(1,14799)
        251          6          1      0.12510804                    1_GWF-(1,11437)  7.14081498E-03                    1_GWF-(1,14799)
        252          6          2  7.19035942E-02                    1_GWF-(1,11438) -9.56461537E-03                    1_GWF-(1,14799)
        253          6          3 -4.23813670E-02                    1_GWF-(1,11372)  1.06712203E-02                    1_GWF-(1,14799)
        254          6          4 -6.36959797E-02                    1_GWF-(1,11416) -8.51604617E-03                    1_GWF-(1,14799)
        255          6          5  6.89280394E-02                    1_GWF-(1,11438)  9.14721932E-03                    1_GWF-(1,14799)
        256          6          6  4.71874641E-02                    1_GWF-(1,11416) -7.45101066E-03                    1_GWF-(1,14799)
        257          6          7 -5.08979376E-02                    1_GWF-(1,11367)  5.70141491E-03                    1_GWF-(1,14799)
        258          6          8 -4.21404479E-02                    1_GWF-(1,26665)  1.81512711E-03                    1_GWF-(1,14798)
        259          6          9  4.89567191E-02                    1_GWF-(1,26665)  1.53092173E-03                    1_GWF-(1,14798)
        260          6         10  4.82963222E-02                    1_GWF-(1,26487)  5.20478568E-03                    1_GWF-(1,14799)
        261          6         11 -5.12085491E-02                    1_GWF-(1,11416) -4.85093471E-03                    1_GWF-(1,14799)
        262          6         12 -4.25425461E-02                    1_GWF-(1,11451)  3.99927818E-03                    1_GWF-(1,14799)
        263          6         13  4.54782016E-02                    1_GWF-(1,11456)  1.71480857E-03                    1_GWF-(1,14801)
        264          6         14 -5.25464370E-02                    1_GWF-(1,11416) -1.46755223E-03                    1_GWF-(1,14799)
        265          6         15 -4.07646541E-02                    1_GWF-(1,11451)  3.94688836E-03                    1_GWF-(1,14799)
        266          6         16  4.00654360E-02                    1_GWF-(1,11456) -4.08455268E-03                    1_GWF-(1,14799)
        267          6         17 -5.73925506E-02                    1_GWF-(1,11416)  3.42751432E-03                    1_GWF-(1,14799)
        268          6         18 -3.73708923E-02                    1_GWF-(1,11456)  2.30067364E-03                    1_GWF-(1,14801)
        269          6         19  4.23613524E-02                    1_GWF-(1,11456)  1.96326507E-03                    1_GWF-(1,14800)
        270          6         20 -4.73452504E-02                    1_GWF-(1,11416)  1.25552803E-03                    1_GWF-(1,14801)
        271          6         21 -4.06354155E-02                    1_GWF-(1,26543) -1.97420960E-03                    1_GWF-(1,14799)
        272          6         22  3.88115037E-02                    1_GWF-(1,11435)  2.68429843E-03                    1_GWF-(1,14799)
        273          6         23  4.06950449E-02                    1_GWF-(1,11452)  2.52233739E-03                    1_GWF-(1,14801)
        274          6         24 -3.95351632E-02                    1_GWF-(1,11456)  2.76467411E-03                    1_GWF-(1,14800)
        275          6         25  4.33468600E-02                    1_GWF-(1,11435)  3.19395232E-03                    1_GWF-(1,14801)
        276          6         26  3.09303071E-02                    1_GWF-(1,11452)  2.16170502E-03                    1_GWF-(1,14800)
        277          6         27  3.57931159E-02                    1_GWF-(1,26589)  1.33005384E-03                    1_GWF-(1,14799)
        278          6         28  4.16718979E-02                    1_GWF-(1,26588)  1.83785502E-03                    1_GWF-(1,14801)
        279          6         29  2.41126497E-02                    1_GWF-(1,26218) -2.45063218E-03                    1_GWF-(1,14801)
        280          6         30 -3.86648441E-02                    1_GWF-(1,11435)  3.04261772E-03                    1_GWF-(1,14801)
        281          6         31  3.02094735E-02                    1_GWF-(1,11435)  2.72180732E-03                    1_GWF-(1,14800)
        282          6         32  1.92513979E-02                    1_GWF-(1,26544)  2.88904751E-03                    1_GWF-(1,14801)
        283          6         33 -2.89334328E-02                    1_GWF-(1,11456)  2.05774888E-03                    1_GWF-(1,14800)
        284          6         34  3.01320905E-02                    1_GWF-(1,11435)  2.21029145E-03                    1_GWF-(1,14801)
        285          6         35 -1.93747490E-02                    1_GWF-(1,26350)  1.64877873E-03                    1_GWF-(1,14800)
        286          6         36 -2.45881750E-02                    1_GWF-(1,26422)  1.95159343E-03                    1_GWF-(1,14799)
        287          6         37  2.70973024E-02                    1_GWF-(1,11456)  1.14178694E-03                    1_GWF-(1,14798)
        288          6         38 -2.68653922E-02                    1_GWF-(1,26422)  1.54656835E-03                    1_GWF-(1,14799)
        289          6         39 -2.40434950E-02                    1_GWF-(1,26350)  1.22369465E-03                    1_GWF-(1,10966)
        290          6         40  2.98962680E-02                    1_GWF-(1,11435)  1.12214279E-03                    1_GWF-(1,14800)
        291          6         41 -2.40278814E-02                    1_GWF-(1,11435)  1.86234293E-03                    1_GWF-(1,14801)
        292          6         42  1.31537832E-02                    1_GWF-(1,11450)  2.01536527E-03                    1_GWF-(1,14800)
        293          6         43  2.21580453E-02                    1_GWF-(1,11435)  2.38963754E-03                    1_GWF-(1,14801)
        294          6         44 -2.10582084E-02                    1_GWF-(1,11435)  2.22365726E-03                    1_GWF-(1,14800)
        295          6         45  1.63404996E-02                    1_GWF-(1,26421)  2.50177948E-03                    1_GWF-(1,14801)
        296          6         46 -1.40252625E-02                    1_GWF-(1,11431)  2.04541441E-03                    1_GWF-(1,14800)
        297          6         47  2.17628678E-02                    1_GWF-(1,11431)  2.40969991E-03                    1_GWF-(1,14801)
        298          6         48  1.76234804E-02                    1_GWF-(1,11440)  2.06987843E-03                    1_GWF-(1,14800)
        299          6         49  1.59464655E-02                    1_GWF-(1,11416)  2.32261413E-03                    1_GWF-(1,14801)
        300          6         50  1.90662784E-02                    1_GWF-(1,11431)  1.84800668E-03                    1_GWF-(1,14800)
        301          7          1     -0.11699260                    1_GWF-(1,11437)  6.99951130E-04                    1_GWF-(1,14801)
        302          7          2 -6.71433493E-02                    1_GWF-(1,11438)  1.97623809E-03                    1_GWF-(1,14800)
        303          7          3  4.67238780E-02                    1_GWF-(1,11438)  2.63191598E-03                    1_GWF-(1,14801)
        304          7          4  4.50437175E-02                    1_GWF-(1,11435)  2.17724165E-03                    1_GWF-(1,14800)
        305          7          5 -5.11416154E-02                    1_GWF-(1,11438)  2.34544782E-03                    1_GWF-(1,14801)
        306          7          6 -3.26583911E-02                    1_GWF-(1,11417)  1.79177984E-03                    1_GWF-(1,14800)
        307          7          7  5.17237832E-02                    1_GWF-(1,11417)  1.97499913E-03                    1_GWF-(1,14801)
        308          7          8 -3.43500321E-02                    1_GWF-(1,11417)  1.82896501E-03                    1_GWF-(1,14800)
        309          7          9 -3.98394902E-02                    1_GWF-(1,11416)  2.04224501E-03                    1_GWF-(1,14801)
        310          7         10  4.12366147E-02                    1_GWF-(1,11417)  1.42540366E-03                    1_GWF-(1,14800)
        311          7         11 -3.30175499E-02                    1_GWF-(1,11417)  1.16651071E-03                    1_GWF-(1,14801)
        312          7         12 -5.02564575E-02                    1_GWF-(1,11416)  7.13550172E-04                    1_GWF-(1,14799)
        313          7         13 -3.18160076E-02                    1_GWF-(1,11451)  9.21779657E-04                    1_GWF-(1,10966)
        314          7         14  3.37236387E-02                    1_GWF-(1,11451)  1.13040581E-03                    1_GWF-(1,14799)
        315          7         15 -3.62946422E-02                    1_GWF-(1,11416)  9.38820382E-04                    1_GWF-(1,10966)
        316          7         16 -2.87193132E-02                    1_GWF-(1,11452)  1.38537895E-03                    1_GWF-(1,14799)
        317          7         17  2.51021628E-02                    1_GWF-(1,11451)  1.04203701E-03                    1_GWF-(1,14800)
        318          7         18  3.33365880E-02                    1_GWF-(1,11452)  1.23015666E-03                    1_GWF-(1,14801)
        319          7         19 -4.33585245E-02                    1_GWF-(1,11452)  1.06511994E-03                    1_GWF-(1,14800)
        320          7         20  2.16410961E-02                    1_GWF-(1,11452)  1.24495562E-03                    1_GWF-(1,14801)
        321          7         21  1.70768825E-02                    1_GWF-(1,11452)  6.16892742E-04                    1_GWF-(1,14800)
        322          7         22 -3.40221900E-02                    1_GWF-(1,11452)  4.50250521E-04                    1_GWF-(1,14800)
        323          7         23 -1.95641650E-02                    1_GWF-(1,11450)  1.48691852E-03                    1_GWF-(1,14801)
        324          7         24  2.85738421E-02                    1_GWF-(1,11452)  1.42887625E-03                    1_GWF-(1,14800)
        325          7         25 -3.49792240E-02                    1_GWF-(1,11452)  1.55110886E-03                    1_GWF-(1,14801)
        326          7         26 -2.26166398E-02                    1_GWF-(1,11369)  1.38931853E-03                    1_GWF-(1,14800)
        327          7         27  1.89652637E-02                    1_GWF-(1,11415)  1.32034687E-03                    1_GWF-(1,14801)
        328          7         28 -2.19582944E-02                    1_GWF-(1,11452) -9.07279401E-04                    1_GWF-(1,10966)
        329          7         29 -1.72565814E-02                    1_GWF-(1,11369) -6.32138798E-04                    1_GWF-(1,14799)
        330          7         30  1.79570172E-02                    1_GWF-(1,11415)  4.71698657E-04                    1_GWF-(1,14799)
        331          7         31  1.80603472E-02                    1_GWF-(1,11409)  6.41304889E-04                    1_GWF-(1,14800)
        332          7         32 -1.70736279E-02                    1_GWF-(1,11369)  9.60076804E-04                    1_GWF-(1,14801)
        333          7         33 -1.96791522E-02                    1_GWF-(1,11416)  9.29332353E-04                    1_GWF-(1,14799)
        334          7         34 -1.37598756E-02                    1_GWF-(1,11421) -7.29086858E-04                    1_GWF-(1,14799)
        335          7         35 -1.67170028E-02                    1_GWF-(1,11369)  7.31923104E-04                    1_GWF-(1,14799)
        336          7         36 -1.64004143E-02                    1_GWF-(1,11416) -4.47298483E-04                    1_GWF-(1,10966)
        337          7         37  1.44536640E-02                    1_GWF-(1,11416)  6.45441172E-04                    1_GWF-(1,14801)
        338          7         38 -1.54035225E-02                    1_GWF-(1,11369)  1.01650735E-03                    1_GWF-(1,14799)
        339          7         39  1.74328091E-02                    1_GWF-(1,11458) -1.02143046E-03                    1_GWF-(1,14799)
        340          7         40  1.79633449E-02                    1_GWF-(1,11416)  1.05594951E-03                    1_GWF-(1,14799)
        341          7         41  1.10531919E-02                    1_GWF-(1,11424)  5.43896416E-04                    1_GWF-(1,14798)
        342          7         42  1.47093081E-02                    1_GWF-(1,11458)  3.62026700E-04                    1_GWF-(1,10966)
        343          7         43  1.44113906E-02                    1_GWF-(1,11416) -5.15963486E-04                    1_GWF-(1,10966)
        344          7         44  1.08036909E-02                    1_GWF-(1,11424) -8.71310781E-04                    1_GWF-(1,14799)
        345          7         45  1.38109127E-02                    1_GWF-(1,11458)  1.27000337E-03                    1_GWF-(1,14799)
        346          7         46  1.00942941E-02                    1_GWF-(1,11416) -1.19277371E-03                    1_GWF-(1,14799)
        347          7         47  1.23306998E-02                    1_GWF-(1,11438)  1.35491384E-03                    1_GWF-(1,14799)
        348          7         48 -1.29220300E-02                    1_GWF-(1,11438) -1.29633665E-03                    1_GWF-(1,14799)
        349          7         49 -1.22409752E-02                    1_GWF-(1,11436)  1.52156391E-03                    1_GWF-(1,14799)
        350          7         50  1.31836858E-02                    1_GWF-(1,11414) -1.49521592E-03                    1_GWF-(1,14799)
        351          8          1  5.15821445E-02                    1_GWF-(1,11431)  1.18978082E-03                    1_GWF-(1,14799)
        352          8          2  1.99910190E-02                    1_GWF-(1,11436) -1.47051818E-03                    1_GWF-(1,14799)
        353          8          3 -1.98915970E-02                    1_GWF-(1,11431)  1.57017513E-03                    1_GWF-(1,14799)
        354          8          4  1.89760488E-02                    1_GWF-(1,11431) -1.24222520E-03                    1_GWF-(1,14799)
        355          8          5  3.01806878E-02                    1_GWF-(1,11436)  1.36084881E-03                    1_GWF-(1,14799)
        356          8          6 -2.92744559E-02                    1_GWF-(1,11436) -1.00622010E-03                    1_GWF-(1,14799)
        357          8          7 -2.28017046E-02                    1_GWF-(1,11435)  7.38071203E-04                    1_GWF-(1,14799)
        358          8          8 -1.78034083E-02                    1_GWF-(1,11416)  2.78202156E-04                    1_GWF-(1,14801)
        359          8          9 -1.81716688E-02                    1_GWF-(1,11436)  2.20169019E-04                    1_GWF-(1,14798)
        360          8         10 -2.04016096E-02                    1_GWF-(1,11435)  7.01043757E-04                    1_GWF-(1,14799)
        361          8         11 -1.98936993E-02                    1_GWF-(1,11416) -8.48943326E-04                    1_GWF-(1,14799)
        362          8         12  1.82329528E-02                    1_GWF-(1,11416)  8.71879931E-04                    1_GWF-(1,14799)
        363          8         13 -1.56657052E-02                    1_GWF-(1,11435)  4.27418675E-04                    1_GWF-(1,14798)
        364          8         14 -1.66495629E-02                    1_GWF-(1,11416)  2.54378953E-04                    1_GWF-(1,14800)
        365          8         15  1.75291743E-02                    1_GWF-(1,11416)  2.27519201E-04                    1_GWF-(1,14799)
        366          8         16  1.13368712E-02                    1_GWF-(1,11415) -4.12248745E-04                    1_GWF-(1,14799)
        367          8         17 -1.24912240E-02                    1_GWF-(1,11416)  5.58573957E-04                    1_GWF-(1,14799)
        368          8         18  1.49783318E-02                    1_GWF-(1,11416) -4.17715547E-04                    1_GWF-(1,14799)
        369          8         19  1.05595602E-02                    1_GWF-(1,11415)  3.16946692E-04                    1_GWF-(1,14800)
        370          8         20  9.00580066E-03                    1_GWF-(1,11452)  2.11744885E-04                    1_GWF-(1,14801)
        371          8         21  9.08235377E-03                    1_GWF-(1,11416) -2.57185500E-04                    1_GWF-(1,14799)
        372          8         22  7.85176204E-03                    1_GWF-(1,11413)  3.40324580E-04                    1_GWF-(1,14799)
        373          8         23  9.52665869E-03                    1_GWF-(1,11452)  4.03404330E-04                    1_GWF-(1,14801)
        374          8         24  7.11297482E-03                    1_GWF-(1,11416) -4.37212571E-04                    1_GWF-(1,14801)
        375          8         25 -7.74414267E-03                    1_GWF-(1,11452)  5.45724601E-04                    1_GWF-(1,14801)
        376          8         26  1.16156478E-02                    1_GWF-(1,11452)  5.01435479E-04                    1_GWF-(1,14800)
        377          8         27  9.35311944E-03                    1_GWF-(1,11458)  4.73850779E-04                    1_GWF-(1,14801)
        378          8         28 -6.97514104E-03                    1_GWF-(1,11409)  2.77644777E-04                    1_GWF-(1,14800)
        379          8         29  7.13128592E-03                    1_GWF-(1,11452)  1.69529643E-04                    1_GWF-(1,14799)
        380          8         30  6.37660334E-03                    1_GWF-(1,11458)  2.68402731E-04                    1_GWF-(1,14801)
        381          8         31 -6.50671204E-03                    1_GWF-(1,11409) -3.18091280E-04                    1_GWF-(1,14801)
        382          8         32  6.24814779E-03                    1_GWF-(1,11452)  3.97803630E-04                    1_GWF-(1,14801)
        383          8         33  6.33877629E-03                    1_GWF-(1,11458)  3.09551704E-04                    1_GWF-(1,14800)
        384          8         34  4.69974702E-03                    1_GWF-(1,11368)  3.27293600E-04                    1_GWF-(1,14799)
        385          8         35  5.69109224E-03                    1_GWF-(1,11409)  2.31619804E-04                    1_GWF-(1,14800)
        386          8         36 -5.07799277E-03                    1_GWF-(1,11454)  2.95431771E-04                    1_GWF-(1,14799)
        387          8         37  4.07934948E-03                    1_GWF-(1,11454)  1.82091601E-04                    1_GWF-(1,14798)
        388          8         38 -5.76439341E-03                    1_GWF-(1,11368)  2.11880626E-04                    1_GWF-(1,14799)
        389          8         39  6.01935067E-03                    1_GWF-(1,11368)  1.62289914E-04                    1_GWF-(1,14801)
        390          8         40  5.54194799E-03                    1_GWF-(1,11435)  2.04902388E-04                    1_GWF-(1,14800)
        391          8         41 -5.03072697E-03                    1_GWF-(1,11435)  3.39489577E-04                    1_GWF-(1,14801)
        392          8         42 -4.82026511E-03                    1_GWF-(1,11438)  3.68089693E-04                    1_GWF-(1,14800)
        393          8         43  5.53948285E-03                    1_GWF-(1,11438)  3.86105854E-04                    1_GWF-(1,14801)
        394          8         44 -5.30314525E-03                    1_GWF-(1,11435) -3.21535730E-04                    1_GWF-(1,14801)
        395          8         45 -4.71484308E-03                    1_GWF-(1,11438)  3.85028549E-04                    1_GWF-(1,14801)
        396          8         46  7.45950989E-03                    1_GWF-(1,11438)  3.25908057E-04                    1_GWF-(1,14800)
        397          8         47 -4.71175337E-03                    1_GWF-(1,11416)  3.62435538E-04                    1_GWF-(1,14801)
        398          8         48 -4.43728080E-03                    1_GWF-(1,11372)  3.33983074E-04                    1_GWF-(1,14800)
        399          8         49  6.72044883E-03                    1_GWF-(1,11438)  2.59520036E-04                    1_GWF-(1,14801)
        400          8         50  6.81924345E-03                    1_GWF-(1,11417) -3.13772425E-04                    1_GWF-(1,14801)
        401          9          1 -4.10966558E-02                    1_GWF-(1,11431)  1.00948971E-04                    1_GWF-(1,14801)
        402          9          2 -1.53790891E-02                    1_GWF-(1,11436)  2.51271981E-04                    1_GWF-(1,14800)
        403          9          3  1.12219541E-02                    1_GWF-(1,11436)  3.46425068E-04                    1_GWF-(1,14801)
        404          9          4  1.10657110E-02                    1_GWF-(1,11435) -2.90893732E-04                    1_GWF-(1,14801)
        405          9          5 -1.15886441E-02                    1_GWF-(1,11436)  3.82166684E-04                    1_GWF-(1,14801)
        406          9          6  9.06419174E-03                    1_GWF-(1,11436)  2.92337786E-04                    1_GWF-(1,14800)
        407          9          7  1.19324946E-02                    1_GWF-(1,11435)  3.22315555E-04                    1_GWF-(1,14801)
        408          9          8 -8.86671384E-03                    1_GWF-(1,11435)  2.68563509E-04                    1_GWF-(1,14800)
        409          9          9 -9.12434080E-03                    1_GWF-(1,11416)  3.12268771E-04                    1_GWF-(1,14801)
        410          9         10  8.58864272E-03                    1_GWF-(1,11435)  2.35445023E-04                    1_GWF-(1,14800)
        411          9         11 -7.74073812E-03                    1_GWF-(1,11435)  2.10704898E-04                    1_GWF-(1,14801)
        412          9         12 -1.01489401E-02                    1_GWF-(1,11416)  1.27113017E-04                    1_GWF-(1,14800)
        413          9         13 -6.66566436E-03                    1_GWF-(1,11415)  1.13518126E-04                    1_GWF-(1,10966)
        414          9         14  5.22699057E-03                    1_GWF-(1,11415)  1.20720333E-04                    1_GWF-(1,14799)
        415          9         15 -5.36249103E-03                    1_GWF-(1,11416)  1.09589436E-04                    1_GWF-(1,14800)
        416          9         16 -5.07347534E-03                    1_GWF-(1,11415)  9.82628737E-05                    1_GWF-(1,14801)
        417          9         17 -4.15430508E-03                    1_GWF-(1,11452)  1.22688430E-04                    1_GWF-(1,14799)
        418          9         18 -4.64487939E-03                    1_GWF-(1,11416)  1.22497467E-04                    1_GWF-(1,10966)
        419          9         19 -5.10616460E-03                    1_GWF-(1,11415)  2.09197067E-04                    1_GWF-(1,14799)
        420          9         20  4.69385451E-03                    1_GWF-(1,11415) -1.52563186E-04                    1_GWF-(1,14799)
        421          9         21  4.18150153E-03                    1_GWF-(1,11452)  1.67838412E-04                    1_GWF-(1,14801)
        422          9         22 -3.71459703E-03                    1_GWF-(1,11415)  1.29242744E-04                    1_GWF-(1,14800)
        423          9         23  4.11939464E-03                    1_GWF-(1,11415)  6.13746109E-05                    1_GWF-(1,14801)
        424          9         24  2.79177308E-03                    1_GWF-(1,11452)  1.45632445E-04                    1_GWF-(1,14799)
        425          9         25 -4.26297725E-03                    1_GWF-(1,11415)  1.58154784E-04                    1_GWF-(1,14800)
        426          9         26  4.28476229E-03                    1_GWF-(1,11415)  1.94763526E-04                    1_GWF-(1,14801)
        427          9         27  3.46832712E-03                    1_GWF-(1,11452) -1.90555286E-04                    1_GWF-(1,14801)
        428          9         28  3.50184648E-03                    1_GWF-(1,11458)  2.08183086E-04                    1_GWF-(1,14801)
        429          9         29 -2.21544902E-03                    1_GWF-(1,11409)  1.61833611E-04                    1_GWF-(1,14800)
        430          9         30  2.21503557E-03                    1_GWF-(1,11454)  1.35695065E-04                    1_GWF-(1,14801)
        431          9         31  2.80260707E-03                    1_GWF-(1,11458) -9.95681152E-05                    1_GWF-(1,10966)
        432          9         32  2.01108785E-03                    1_GWF-(1,11368)  4.96051855E-05                    1_GWF-(1,14798)
        433          9         33  2.22087517E-03                    1_GWF-(1,11454)  1.19416449E-04                    1_GWF-(1,14801)
        434          9         34 -2.56287375E-03                    1_GWF-(1,11454) -1.40547761E-04                    1_GWF-(1,14801)
        435          9         35  2.16925265E-03                    1_GWF-(1,11368)  1.72937060E-04                    1_GWF-(1,14801)
        436          9         36 -2.84945112E-03                    1_GWF-(1,11368)  1.44100062E-04                    1_GWF-(1,14800)
        437          9         37 -2.94838847E-03                    1_GWF-(1,11454)  1.24872658E-04                    1_GWF-(1,14801)
        438          9         38  2.31759450E-03                    1_GWF-(1,11454)  1.83263136E-04                    1_GWF-(1,14799)
        439          9         39 -2.32263580E-03                    1_GWF-(1,11368) -1.71112542E-04                    1_GWF-(1,14799)
        440          9         40  2.23580389E-03                    1_GWF-(1,11458)  1.82045205E-04                    1_GWF-(1,14799)
        441          9         41  1.85162017E-03                    1_GWF-(1,11454) -1.05292502E-04                    1_GWF-(1,14799)
        442          9         42 -1.62503114E-03                    1_GWF-(1,26665)  6.21307538E-05                    1_GWF-(1,14799)
        443          9         43  1.80629717E-03                    1_GWF-(1,11458)  6.00216987E-05                    1_GWF-(1,14800)
        444          9         44  1.35192783E-03                    1_GWF-(1,11438) -9.69041469E-05                    1_GWF-(1,14799)
        445          9         45  1.69085062E-03                    1_GWF-(1,11369)  1.66319317E-04                    1_GWF-(1,14799)
        446          9         46 -1.64032711E-03                    1_GWF-(1,11438) -1.71187782E-04                    1_GWF-(1,14799)
        447          9         47  1.98993715E-03                    1_GWF-(1,11438)  2.07708334E-04                    1_GWF-(1,14799)
        448          9         48  1.28319448E-03                    1_GWF-(1,11369) -1.73411273E-04                    1_GWF-(1,14799)
        449          9         49 -1.33826208E-03                    1_GWF-(1,11438)  2.30105320E-04                    1_GWF-(1,14799)
        450          9         50  2.27157420E-03                    1_GWF-(1,11438) -2.22096904E-04                    1_GWF-(1,14799)
        451         10          1 -9.75606599E-03                    1_GWF-(1,11462)  2.14968098E-04                    1_GWF-(1,14799)
        452         10          2 -1.06428995E-03                    1_GWF-(1,11483) -2.43598843E-04                    1_GWF-(1,14799)
        453         10          3  6.20965105E-03                    1_GWF-(1,11462)  2.34010050E-04                    1_GWF-(1,14799)
        454         10          4 -5.60562837E-03                    1_GWF-(1,11462) -1.58588924E-04                    1_GWF-(1,14799)
        455         10          5 -2.92292506E-03                    1_GWF-(1,11464)  1.75414786E-04                    1_GWF-(1,14799)
        456         10          6  2.57352156E-03                    1_GWF-(1,11462) -1.47161307E-04                    1_GWF-(1,14799)
        457         10          7 -2.94926194E-03                    1_GWF-(1,11462)  8.15519198E-05                    1_GWF-(1,14799)
        458         10          8 -2.84809450E-03                    1_GWF-(1,11464)  3.04999142E-05                    1_GWF-(1,14801)
        459         10          9 -1.42027327E-03                    1_GWF-(1,11467)  6.29205748E-05                    1_GWF-(1,14798)
        460         10         10  2.31183645E-03                    1_GWF-(1,11464)  1.17702120E-04                    1_GWF-(1,14799)
        461         10         11  1.75566577E-03                    1_GWF-(1,11469) -1.32468365E-04                    1_GWF-(1,14799)
        462         10         12 -1.42595752E-03                    1_GWF-(1,11465)  1.30591724E-04                    1_GWF-(1,14799)
[...]
        692         14         42 -1.61416102E-05                    1_GWF-(1,11462)  1.30714574E-06                    1_GWF-(1,14801)
        693         14         43  1.20907977E-05                    1_GWF-(1,11462) -1.22645587E-06                    1_GWF-(1,14801)
        694         14         44 -9.19968416E-06                    1_GWF-(1,11415)  1.43998411E-06                    1_GWF-(1,14801)
        695         14         45 -1.12950576E-05                    1_GWF-(1,11462)  1.06578458E-06                    1_GWF-(1,14800)
        696         14         46  1.18804147E-05                    1_GWF-(1,26486)  5.34993827E-07                    1_GWF-(1,14801)
        697         14         47  1.02016446E-05                    1_GWF-(1,26487)  6.25623356E-07                    1_GWF-(1,14801)
        698         14         48 -1.30902645E-05                    1_GWF-(1,11462)  1.10881745E-06                    1_GWF-(1,14800)
        699         14         49  9.59134579E-06                    1_GWF-(1,11452)  1.42979798E-06                    1_GWF-(1,14801)
        700         14         50  2.20139726E-05                    1_GWF-(1,11435) -1.41519486E-06                    1_GWF-(1,14801)
        701         15          1 -2.00409259E-05                    1_GWF-(1,11435)  1.62699072E-06                    1_GWF-(1,14801)
        702         15          2 -8.13400486E-06                    1_GWF-(1,11412)  1.19234618E-06                    1_GWF-(1,14800)
        703         15          3  1.21778552E-05                    1_GWF-(1,11435)  7.32533632E-07                    1_GWF-(1,14801)
        704         15          4 -1.08512899E-05                    1_GWF-(1,11462)  3.81617049E-07                    1_GWF-(1,14799)
        705         15          5 -1.07524088E-05                    1_GWF-(1,26486)  9.21180189E-07                    1_GWF-(1,14800)
        706         15          6  1.15404427E-05                    1_GWF-(1,11462)  1.31632699E-06                    1_GWF-(1,14801)
        707         15          7 -1.14728876E-05                    1_GWF-(1,11462) -1.10540926E-06                    1_GWF-(1,14801)
        708         15          8 -8.72761393E-06                    1_GWF-(1,11436)  1.15332477E-06                    1_GWF-(1,14801)
        709         15          9  1.28882422E-05                    1_GWF-(1,11462)  8.32693673E-07                    1_GWF-(1,14800)
        710         15         10 -1.57240549E-05                    1_GWF-(1,11462)  7.81966828E-07                    1_GWF-(1,14801)
        711         15         11 -8.17949191E-06                    1_GWF-(1,11436)  6.39660545E-07                    1_GWF-(1,14800)
        712         15         12  9.57482199E-06                    1_GWF-(1,11462)  5.04640899E-07                    1_GWF-(1,14801)
        713         15         13 -1.28154955E-05                    1_GWF-(1,11462)  4.32730534E-07                    1_GWF-(1,14799)
        714         15         14  8.39447907E-06                    1_GWF-(1,26487)  3.18789759E-07                    1_GWF-(1,14800)
        715         15         15  1.06228898E-05                    1_GWF-(1,11462)  5.65048317E-07                    1_GWF-(1,14801)
        716         15         16  8.18352823E-06                    1_GWF-(1,26487)  3.86839443E-07                    1_GWF-(1,14800)
        717         15         17  7.94495458E-06                    1_GWF-(1,26486)  3.16137542E-07                    1_GWF-(1,14798)
        718         15         18  1.04736506E-05                    1_GWF-(1,11462)  4.49950508E-07                    1_GWF-(1,14799)
        719         15         19  7.06268813E-06                    1_GWF-(1,26543)  2.99609345E-07                    1_GWF-(1,14800)
        720         15         20  9.04573636E-06                    1_GWF-(1,26588)  3.80412651E-07                    1_GWF-(1,14801)
        721         15         21  9.99671325E-06                    1_GWF-(1,11462)  3.67996614E-07                    1_GWF-(1,14799)
        722         15         22 -7.58005322E-06                    1_GWF-(1,26350)  4.27506942E-07                    1_GWF-(1,14798)
        723         15         23 -9.16328348E-06                    1_GWF-(1,26422)  7.46092037E-07                    1_GWF-(1,14799)
        724         15         24  1.08603982E-05                    1_GWF-(1,11462) -5.46453444E-07                    1_GWF-(1,14799)
        725         15         25 -8.79863923E-06                    1_GWF-(1,11462)  5.90148993E-07                    1_GWF-(1,14799)
        726         15         26  6.51051644E-06                    1_GWF-(1,11451)  4.12194384E-07                    1_GWF-(1,14800)
        727         15         27  8.91971823E-06                    1_GWF-(1,11462)  3.91475652E-07                    1_GWF-(1,14801)
        728         15         28 -7.65381349E-06                    1_GWF-(1,11462)  2.48678791E-07                    1_GWF-(1,14800)
        729         15         29  6.61338261E-06                    1_GWF-(1,26622)  3.07646889E-07                    1_GWF-(1,14798)
        730         15         30  9.99913464E-06                    1_GWF-(1,11462)  5.52505548E-07                    1_GWF-(1,14799)
        731         15         31 -8.22264623E-06                    1_GWF-(1,11462) -4.59806462E-07                    1_GWF-(1,14799)
        732         15         32 -5.11139634E-06                    1_GWF-(1,11384)  4.78363132E-07                    1_GWF-(1,14801)
        733         15         33  9.48775850E-06                    1_GWF-(1,11462)  2.91695767E-07                    1_GWF-(1,14800)
        734         15         34 -5.88455283E-06                    1_GWF-(1,11462)  1.58845805E-07                    1_GWF-(1,14798)
        735         15         35  5.69883898E-06                    1_GWF-(1,26487)  3.91972246E-07                    1_GWF-(1,14799)
        736         15         36  9.23619404E-06                    1_GWF-(1,11462)  3.31692299E-07                    1_GWF-(1,14800)
        737         15         37 -5.11161663E-06                    1_GWF-(1,26486)  4.31856031E-07                    1_GWF-(1,14801)
        738         15         38 -6.98246523E-06                    1_GWF-(1,11464)  3.72221384E-07                    1_GWF-(1,14800)
        739         15         39  9.02783824E-06                    1_GWF-(1,11462)  3.89203867E-07                    1_GWF-(1,14801)
        740         15         40  5.51346801E-06                    1_GWF-(1,11483)  3.36148632E-07                    1_GWF-(1,14799)
        741         15         41 -4.79711979E-06                    1_GWF-(1,11464)  3.83086647E-07                    1_GWF-(1,14798)
        742         15         42  5.68347676E-06                    1_GWF-(1,11462)  4.99806958E-07                    1_GWF-(1,14799)
        743         15         43  4.69282005E-06                    1_GWF-(1,26623) -1.29864317E-07                    1_GWF-(1,14799)
        744         15         44  3.99849595E-06                    1_GWF-(1,26622) -2.28833569E-07                    1_GWF-(1,14799)
        745         15         45 -4.90486095E-06                    1_GWF-(1,11483)  5.79969925E-07                    1_GWF-(1,14799)
        746         15         46  3.18617015E-06                    1_GWF-(1,11467) -6.43144081E-07                    1_GWF-(1,14799)
        747         15         47  4.03638560E-06                    1_GWF-(1,11483)  7.53050553E-07                    1_GWF-(1,14799)
        748         15         48  5.42842329E-06                    1_GWF-(1,11462) -7.90406998E-07                    1_GWF-(1,14799)
        749         15         49 -5.04398978E-06                    1_GWF-(1,11462)  1.17489859E-06                    1_GWF-(1,14799)
        750         15         50 -3.35046468E-06                    1_GWF-(1,11413) -4.12780093E-07                    1_GWF-(1,14799)
        751         16          1  5.56460506E-06                    1_GWF-(1,11462)  1.12647238E-06                    1_GWF-(1,14799)
        752         16          2 -2.99807316E-06                    1_GWF-(1,26217) -6.23368434E-07                    1_GWF-(1,14799)
        753         16          3 -5.33589971E-06                    1_GWF-(1,11462)  4.21740748E-07                    1_GWF-(1,14799)
        754         16          4  6.96544989E-06                    1_GWF-(1,11462)  5.35165653E-08                    1_GWF-(1,14801)
        755         16          5  2.76497501E-06                    1_GWF-(1,26589) -3.57704385E-07                    1_GWF-(1,14799)
        756         16          6 -6.46858400E-06                    1_GWF-(1,11462)  6.82027947E-07                    1_GWF-(1,14799)
        757         16          7  6.50035420E-06                    1_GWF-(1,11462) -6.56642787E-07                    1_GWF-(1,14799)
        758         16          8  2.60693723E-06                    1_GWF-(1,26486)  6.20657932E-07                    1_GWF-(1,14799)
        759         16          9 -6.34558296E-06                    1_GWF-(1,11462)  3.31338381E-07                    1_GWF-(1,14798)
        760         16         10  5.96663878E-06                    1_GWF-(1,11462)  1.29562989E-07                    1_GWF-(1,14800)
        761         16         11  4.30436921E-06                    1_GWF-(1,26622)  2.55145818E-07                    1_GWF-(1,14799)
        762         16         12 -5.33922597E-06                    1_GWF-(1,11462) -3.34566970E-07                    1_GWF-(1,14799)
        763         16         13  2.95868320E-06                    1_GWF-(1,11412)  3.26958539E-07                    1_GWF-(1,14799)
        764         16         14  2.87441824E-06                    1_GWF-(1,11462)  2.15474253E-07                    1_GWF-(1,14801)
        765         16         15 -5.42451977E-06                    1_GWF-(1,11462)  1.58285545E-07                    1_GWF-(1,14800)
        766         16         16  2.84691988E-06                    1_GWF-(1,11462)  1.10450990E-07                    1_GWF-(1,14801)
        767         16         17  2.72125190E-06                    1_GWF-(1,26666) -1.41629227E-07                    1_GWF-(1,14799)
        768         16         18 -4.04091905E-06                    1_GWF-(1,11462)  2.13128494E-07                    1_GWF-(1,14799)
        769         16         19 -2.45661419E-06                    1_GWF-(1,26544)  1.48633239E-07                    1_GWF-(1,14801)
        770         16         20  2.82473104E-06                    1_GWF-(1,11462) -1.19706096E-07                    1_GWF-(1,14801)
        771         16         21 -3.81538106E-06                    1_GWF-(1,11462)  1.48771672E-07                    1_GWF-(1,14799)
        772         16         22 -2.07840804E-06                    1_GWF-(1,26665)  1.16998144E-07                    1_GWF-(1,14798)
        773         16         23  3.75280561E-06                    1_GWF-(1,11462)  1.15633934E-07                    1_GWF-(1,14799)
        774         16         24 -3.79759435E-06                    1_GWF-(1,11462)  1.89270537E-07                    1_GWF-(1,14801)
        775         16         25 -2.09137785E-06                    1_GWF-(1,11463)  2.11846791E-07                    1_GWF-(1,14800)
        776         16         26  3.32397302E-06                    1_GWF-(1,11462)  2.40993123E-07                    1_GWF-(1,14801)
        777         16         27 -3.73292735E-06                    1_GWF-(1,11462)  1.84186106E-07                    1_GWF-(1,14800)
        778         16         28  2.16830306E-06                    1_GWF-(1,11413)  1.72341771E-07                    1_GWF-(1,14801)
        779         16         29  2.20324892E-06                    1_GWF-(1,11462) -1.30278901E-07                    1_GWF-(1,14799)
        780         16         30 -3.27742899E-06                    1_GWF-(1,11462)  1.84437113E-07                    1_GWF-(1,14799)
        781         16         31  1.80205913E-06                    1_GWF-(1,26422)  1.12097091E-07                    1_GWF-(1,14798)
        782         16         32  1.55020420E-06                    1_GWF-(1,26350)  9.11582564E-08                    1_GWF-(1,14799)
        783         16         33 -2.38583266E-06                    1_GWF-(1,11462)  7.50677853E-08                    1_GWF-(1,14801)
        784         16         34 -1.95193910E-06                    1_GWF-(1,26487)  7.61749003E-08                    1_GWF-(1,14798)
        785         16         35  1.98724663E-06                    1_GWF-(1,11462)  1.35171035E-07                    1_GWF-(1,14799)
        786         16         36 -2.30028609E-06                    1_GWF-(1,11462)  7.62730857E-08                    1_GWF-(1,14798)
        787         16         37 -1.88986596E-06                    1_GWF-(1,26422)  8.72863555E-08                    1_GWF-(1,14799)
        788         16         38  1.87230186E-06                    1_GWF-(1,11462)  9.80384591E-08                    1_GWF-(1,14801)
        789         16         39 -1.91121841E-06                    1_GWF-(1,11462)  7.33111046E-08                    1_GWF-(1,14800)
        790         16         40 -1.36943679E-06                    1_GWF-(1,26588)  8.81749013E-08                    1_GWF-(1,14799)
        791         16         41  1.78810582E-06                    1_GWF-(1,11462)  7.24397159E-08                    1_GWF-(1,14798)
        792         16         42 -1.34360638E-06                    1_GWF-(1,11462)  7.17830043E-08                    1_GWF-(1,14800)
        793         16         43  1.31980108E-06                    1_GWF-(1,11415)  9.09195702E-08                    1_GWF-(1,14801)
        794         16         44  1.78930309E-06                    1_GWF-(1,11462)  7.81016110E-08                    1_GWF-(1,14800)
        795         16         45 -1.23648684E-06                    1_GWF-(1,11462)  6.93930871E-08                    1_GWF-(1,14799)
        796         16         46  1.12799033E-06                    1_GWF-(1,26588)  3.95890015E-08                    1_GWF-(1,14798)
        797         16         47  1.60692400E-06                    1_GWF-(1,11462)  6.19729806E-08                    1_GWF-(1,14800)
        798         16         48 -1.11289514E-06                    1_GWF-(1,15751)  9.79395262E-08                    1_GWF-(1,14801)
        799         16         49 -1.15290426E-06                    1_GWF-(1,11435)  9.14487270E-08                    1_GWF-(1,14800)
        800         16         50  1.56168235E-06                    1_GWF-(1,11462)  9.91340939E-08                    1_GWF-(1,14801)
        801         17          1 -1.46781662E-06                    1_GWF-(1,11462)  1.18822565E-07                    1_GWF-(1,14800)
        802         17          2 -1.11475533E-06                    1_GWF-(1,26622)  6.53735961E-08                    1_GWF-(1,14801)
        803         17          3  1.91374866E-06                    1_GWF-(1,11462)  6.66422636E-08                    1_GWF-(1,14801)
        804         17          4 -2.18458284E-06                    1_GWF-(1,11462)  1.09635325E-07                    1_GWF-(1,14800)
        805         17          5 -8.48848800E-07                    1_GWF-(1,26665)  1.21523875E-07                    1_GWF-(1,14801)
        806         18          1  1.23742988E-06                    1_GWF-(1,11462)  8.40467871E-08                    1_GWF-(1,14800)
        807         18          2  5.21802457E-07                    1_GWF-(1,26543)  2.76244534E-08                    1_GWF-(1,14799)
        808         19          1 -9.96983929E-07                    1_GWF-(1,11462)  2.32956261E-08                    1_GWF-(1,14800)
 --------------------------------------------------------------------------------------------------------------------------------------


 UBDSV1 SAVING     FLOW-JA-FACE ON UNIT   1020 AT TIME STEP      1, STRESS PERIOD      1
 UBDSV06 SAVING       DATA-SPDIS IN MODEL ML               PACKAGE NPF             CONNECTED TO MODEL ML               PACKAGE NPF              ON UNIT   1020 AT TIME STEP      1, STRESS PERIOD      1
 UBDSV06 SAVING              WEL IN MODEL ML               PACKAGE ML              CONNECTED TO MODEL ML               PACKAGE WEL_0            ON UNIT   1020 AT TIME STEP      1, STRESS PERIOD      1
 UBDSV06 SAVING              DRN IN MODEL ML               PACKAGE ML              CONNECTED TO MODEL ML               PACKAGE DRN_0            ON UNIT   1020 AT TIME STEP      1, STRESS PERIOD      1
 UBDSV06 SAVING              RIV IN MODEL ML               PACKAGE ML              CONNECTED TO MODEL ML               PACKAGE RIV_0            ON UNIT   1020 AT TIME STEP      1, STRESS PERIOD      1
 UBDSV06 SAVING              GHB IN MODEL ML               PACKAGE ML              CONNECTED TO MODEL ML               PACKAGE GHB_0            ON UNIT   1020 AT TIME STEP      1, STRESS PERIOD      1
 UBDSV06 SAVING              RCH IN MODEL ML               PACKAGE ML              CONNECTED TO MODEL ML               PACKAGE RCHA_0           ON UNIT   1020 AT TIME STEP      1, STRESS PERIOD      1

 HEAD WILL BE SAVED ON UNIT 1021 AT END OF TIME STEP    1, STRESS PERIOD    1


  VOLUME BUDGET FOR ENTIRE MODEL AT END OF TIME STEP    1, STRESS PERIOD   1
  ---------------------------------------------------------------------------------------------------

     CUMULATIVE VOLUME      L**3       RATES FOR THIS TIME STEP      L**3/T          PACKAGE NAME    
     ------------------                 ------------------------                     ----------------

           IN:                                      IN:
           ---                                      ---
                 WEL =           0.0000                   WEL =           0.0000     WEL_0           
                 DRN =           0.0000                   DRN =           0.0000     DRN_0           
                 RIV =          11.1865                   RIV =           1.1186     RIV_0           
                 GHB =          13.7189                   GHB =           1.3719     GHB_0           
                 RCH =           8.2636                   RCH =           0.8264     RCHA_0          

            TOTAL IN =          33.1689              TOTAL IN =           3.3169

          OUT:                                     OUT:
          ----                                     ----
                 WEL =           0.8421                   WEL =       8.4206E-02     WEL_0           
                 DRN =           1.9610                   DRN =           0.1961     DRN_0           
                 RIV =          28.9252                   RIV =           2.8925     RIV_0           
                 GHB =           1.4408                   GHB =           0.1441     GHB_0           
                 RCH =           0.0000                   RCH =           0.0000     RCHA_0          

           TOTAL OUT =          33.1690             TOTAL OUT =           3.3169

            IN - OUT =      -1.2919E-05              IN - OUT =      -1.2919E-06

 PERCENT DISCREPANCY =          -0.00     PERCENT DISCREPANCY =          -0.00




         TIME SUMMARY AT END OF TIME STEP    1 IN STRESS PERIOD    1
                    SECONDS     MINUTES      HOURS       DAYS        YEARS
                    -----------------------------------------------------------
   TIME STEP LENGTH  10.000     0.16667     2.77778E-03 1.15741E-04 3.16881E-07
 STRESS PERIOD TIME  10.000     0.16667     2.77778E-03 1.15741E-04 3.16881E-07
         TOTAL TIME  10.000     0.16667     2.77778E-03 1.15741E-04 3.16881E-07


end timestep

