                                   MODFLOW 6
                U.S. GEOLOGICAL SURVEY MODULAR HYDROLOGIC MODEL
                          GROUNDWATER FLOW MODEL (GWF)
                            VERSION 6.2.2 07/30/2021

   MODFLOW 6 compiled Jul 31 2021 14:22:53 with IFORT compiler (ver. 19.10.3)

This software has been approved for release by the U.S. Geological 
Survey (USGS). Although the software has been subjected to rigorous 
review, the USGS reserves the right to update the software as needed 
pursuant to further analysis and review. No warranty, expressed or 
implied, is made by the USGS or the U.S. Government as to the 
functionality of the software and related material nor shall the 
fact of release constitute any such warranty. Furthermore, the 
software is released on condition that neither the USGS nor the U.S. 
Government shall be held liable for any damages resulting from its 
authorized or unauthorized use. Also refer to the USGS Water 
Resources Software User Rights Notice for complete use, copyright, 
and distribution information.


System command used to initiate simulation:
mf6

MODFLOW was compiled using uniform precision.

Real Variables
  KIND: 8
  TINY (smallest non-zero value):    2.225074-308
  HUGE (largest value):    1.797693+308
  PRECISION: 15
  BIT SIZE: 64

Integer Variables
  KIND: 4
  HUGE (largest value): 2147483647
  BIT SIZE: 32

Long Integer Variables
  KIND: 8
  HUGE (largest value): 9223372036854775807
  BIT SIZE: 64

Logical Variables
  KIND: 4
  BIT SIZE: 32
 

 OPENED ./ml.disv
 FILE TYPE:DISV6                  UNIT 1005   STATUS:OLD                 
 FORMAT:FORMATTED              ACCESS:SEQUENTIAL          
 ACTION:READ                


 OPENED ./ml.ic
 FILE TYPE:IC6                    UNIT 1006   STATUS:OLD                 
 FORMAT:FORMATTED              ACCESS:SEQUENTIAL          
 ACTION:READ                


 OPENED ./ml.npf
 FILE TYPE:NPF6                   UNIT 1007   STATUS:OLD                 
 FORMAT:FORMATTED              ACCESS:SEQUENTIAL          
 ACTION:READ                


 OPENED ./ml.ghb
 FILE TYPE:GHB6                   UNIT 1008   STATUS:OLD                 
 FORMAT:FORMATTED              ACCESS:SEQUENTIAL          
 ACTION:READ                


 OPENED ./ml.rcha
 FILE TYPE:RCH6                   UNIT 1009   STATUS:OLD                 
 FORMAT:FORMATTED              ACCESS:SEQUENTIAL          
 ACTION:READ                


 OPENED ./ml.obs
 FILE TYPE:OBS6                   UNIT 1010   STATUS:OLD                 
 FORMAT:FORMATTED              ACCESS:SEQUENTIAL          
 ACTION:READ                


 OPENED ./ml.oc
 FILE TYPE:OC6                    UNIT 1011   STATUS:OLD                 
 FORMAT:FORMATTED              ACCESS:SEQUENTIAL          
 ACTION:READ                


 OPENED ml.wel
 FILE TYPE:WEL6                   UNIT 1012   STATUS:OLD                 
 FORMAT:FORMATTED              ACCESS:SEQUENTIAL          
 ACTION:READ                


 OPENED ml.drn
 FILE TYPE:DRN6                   UNIT 1013   STATUS:OLD                 
 FORMAT:FORMATTED              ACCESS:SEQUENTIAL          
 ACTION:READ                


 OPENED ml.riv
 FILE TYPE:RIV6                   UNIT 1014   STATUS:OLD                 
 FORMAT:FORMATTED              ACCESS:SEQUENTIAL          
 ACTION:READ                


 DISV -- VERTEX GRID DISCRETIZATION PACKAGE, VERSION 1 : 12/23/2015 - INPUT READ FROM UNIT 1005


 # File generated by Flopy version 3.3.5 on 04/28/2022 at 15:59:40.

 PROCESSING DISCRETIZATION OPTIONS
    MODEL LENGTH UNIT IS METERS
    XORIGIN SPECIFIED AS     405575.681000000    
    YORIGIN SPECIFIED AS     6423306.54000000    
 END OF DISCRETIZATION OPTIONS

 PROCESSING DISCRETIZATION DIMENSIONS
   NLAY = 1
   NCPL = 26674
   NVERT = 27090
 END OF DISCRETIZATION DIMENSIONS

 PROCESSING GRIDDATA
 END PROCESSING GRIDDATA

 PROCESSING VERTICES
   SUCCESSFULLY READ 27090 (X,Y) COORDINATES
   MINIMUM X COORDINATE =     405575.681000000    
   MAXIMUM X COORDINATE =     413975.681000000    
   MINIMUM Y COORDINATE =     6423306.54000000    
   MAXIMUM Y COORDINATE =     6432506.54000000    
 END PROCESSING VERTICES

 PROCESSING CELL2D
   SUCCESSFULLY READ 26674 CELL2D INFORMATION ENTRIES
   MINIMUM X CELL CENTER =     405675.681000000    
   MAXIMUM X CELL CENTER =     413875.681000000    
   MINIMUM Y CELL CENTER =     6423406.54000000    
   MAXIMUM Y CELL CENTER =     6432406.54000000    
   MAXIMUM NUMBER OF CELL2D VERTICES IS 6 FOR CELL 208
 END PROCESSING VERTICES

 NPF -- NODE PROPERTY FLOW PACKAGE, VERSION 1, 3/30/2015 INPUT READ FROM UNIT 1007


 # File generated by Flopy version 3.3.5 on 04/28/2022 at 15:59:42.
 PROCESSING NPF OPTIONS
    CELL-BY-CELL FLOW INFORMATION WILL BE SAVED TO BINARY FILE WHENEVER ICBCFL IS NOT ZERO.
    SPECIFIC DISCHARGE WILL BE CALCULATED AT CELL CENTERS AND WRITTEN TO DATA-SPDIS IN BUDGET FILE WHEN REQUESTED.
 END OF NPF OPTIONS

 WEL   -- WEL PACKAGE, VERSION 8, 2/22/2014 INPUT READ FROM UNIT 1012
 # File generated by Flopy version 3.3.5 on 04/28/2022 at 15:59:43.

 PROCESSING WEL OPTIONS
    WEL BOUNDARIES HAVE NAMES IN LAST COLUMN.
    FLOWS WILL BE SAVED TO BUDGET FILE SPECIFIED IN OUTPUT CONTROL
 END OF WEL OPTIONS

 PROCESSING WEL DIMENSIONS
    MAXBOUND =       9
 END OF WEL DIMENSIONS

 DRN   -- DRN PACKAGE, VERSION 8, 2/22/2014 INPUT READ FROM UNIT 1013
 # File generated by Flopy version 3.3.5 on 04/28/2022 at 15:59:43.

 PROCESSING DRN OPTIONS
    DRN BOUNDARIES HAVE NAMES IN LAST COLUMN.
    FLOWS WILL BE SAVED TO BUDGET FILE SPECIFIED IN OUTPUT CONTROL

 OPENED ml.drn.obs
 FILE TYPE:OBS   UNIT 1016   STATUS:OLD                 
 FORMAT:FORMATTED              ACCESS:SEQUENTIAL          
 ACTION:READ                

 END OF DRN OPTIONS

 PROCESSING DRN DIMENSIONS
    MAXBOUND =     133
 END OF DRN DIMENSIONS

 RIV   -- RIV PACKAGE, VERSION 8, 2/22/2014 INPUT READ FROM UNIT 1014
 # File generated by Flopy version 3.3.5 on 04/28/2022 at 15:59:43.

 PROCESSING RIV OPTIONS
    AUXILIARY RIV VARIABLE: FID             
    RIV BOUNDARIES HAVE NAMES IN LAST COLUMN.
    FLOWS WILL BE SAVED TO BUDGET FILE SPECIFIED IN OUTPUT CONTROL
 END OF RIV OPTIONS

 PROCESSING RIV DIMENSIONS
    MAXBOUND =     794
 END OF RIV DIMENSIONS

 GHB   -- GHB PACKAGE, VERSION 8, 2/22/2014 INPUT READ FROM UNIT 1008
 # File generated by Flopy version 3.3.5 on 04/28/2022 at 15:59:42.

 PROCESSING GHB OPTIONS
    GHB BOUNDARIES HAVE NAMES IN LAST COLUMN.
    FLOWS WILL BE SAVED TO BUDGET FILE SPECIFIED IN OUTPUT CONTROL
 END OF GHB OPTIONS

 PROCESSING GHB DIMENSIONS
    MAXBOUND =     153
 END OF GHB DIMENSIONS

 RCH   -- RCH PACKAGE, VERSION 8, 2/22/2014 INPUT READ FROM UNIT 1009
 # File generated by Flopy version 3.3.5 on 04/28/2022 at 15:59:42.

 PROCESSING RCH OPTIONS
    RECHARGE INPUT WILL BE READ AS ARRAY(S).
    FLOWS WILL BE SAVED TO BUDGET FILE SPECIFIED IN OUTPUT CONTROL
 END OF RCH OPTIONS

 IC -- INITIAL CONDITIONS PACKAGE, VERSION 8, 3/28/2015 INPUT READ FROM UNIT 1006
 # File generated by Flopy version 3.3.5 on 04/28/2022 at 15:59:42.
 PROCESSING GRIDDATA

     INITIAL HEAD =   15.00000    
 END PROCESSING GRIDDATA
 PROCESSING GRIDDATA

                ICELLTYPE = 0

 OPENED ../com_ext/k.txt
 FILE TYPE:OPEN/CLOSE   UNIT 1017   STATUS:OLD                 
 FORMAT:FORMATTED              ACCESS:SEQUENTIAL          
 ACTION:READ                

 K33 not provided.  Assuming K33 = K.
 K22 not provided.  Assuming K22 = K.
 END PROCESSING GRIDDATA

The observation utility is active for "ML"
 # File generated by Flopy version 3.3.5 on 04/28/2022 at 15:59:43.

Processing observation options:

Text output number of digits of precision set to: 10
The PRINT_INPUT option has been specified.


 OBSERVATIONS READ FROM FILE "ml.obs"
 ----------------------------------------------------------------------------------------------------------------------------------------------------------------------------------------------------------------------------
 NAME                                     TYPE                                       TIME         LOCATION DATA                              OUTPUT FILENAME                                                                 
 ----------------------------------------------------------------------------------------------------------------------------------------------------------------------------------------------------------------------------
 PRG                                      CONTINUOUS  HEAD                           ALL TIMES    "1 16523"                                  sim/hds.csv                                                                     
 P8                                       CONTINUOUS  HEAD                           ALL TIMES    "1 10323"                                  sim/hds.csv                                                                     
 P24                                      CONTINUOUS  HEAD                           ALL TIMES    "1 9594"                                   sim/hds.csv                                                                     
 P25                                      CONTINUOUS  HEAD                           ALL TIMES    "1 13966"                                  sim/hds.csv                                                                     
 P32                                      CONTINUOUS  HEAD                           ALL TIMES    "1 15787"                                  sim/hds.csv                                                                     
 P33                                      CONTINUOUS  HEAD                           ALL TIMES    "1 15825"                                  sim/hds.csv                                                                     
 PF                                       CONTINUOUS  HEAD                           ALL TIMES    "1 21048"                                  sim/hds.csv                                                                     
 PH                                       CONTINUOUS  HEAD                           ALL TIMES    "1 20781"                                  sim/hds.csv                                                                     
 PZHM1                                    CONTINUOUS  HEAD                           ALL TIMES    "1 14521"                                  sim/hds.csv                                                                     
 P26                                      CONTINUOUS  HEAD                           ALL TIMES    "1 13141"                                  sim/hds.csv                                                                     
 P27                                      CONTINUOUS  HEAD                           ALL TIMES    "1 8465"                                   sim/hds.csv                                                                     
 P28                                      CONTINUOUS  HEAD                           ALL TIMES    "1 8924"                                   sim/hds.csv                                                                     
 P29                                      CONTINUOUS  HEAD                           ALL TIMES    "1 4524"                                   sim/hds.csv                                                                     
 P30                                      CONTINUOUS  HEAD                           ALL TIMES    "1 5255"                                   sim/hds.csv                                                                     
 R20                                      CONTINUOUS  HEAD                           ALL TIMES    "1 10676"                                  sim/hds.csv                                                                     
 R21                                      CONTINUOUS  HEAD                           ALL TIMES    "1 10403"                                  sim/hds.csv                                                                     
 P34                                      CONTINUOUS  HEAD                           ALL TIMES    "1 15131"                                  sim/hds.csv                                                                     
 P37                                      CONTINUOUS  HEAD                           ALL TIMES    "1 15755"                                  sim/hds.csv                                                                     
 P38                                      CONTINUOUS  HEAD                           ALL TIMES    "1 15045"                                  sim/hds.csv                                                                     
 P39                                      CONTINUOUS  HEAD                           ALL TIMES    "1 9637"                                   sim/hds.csv                                                                     
 P40                                      CONTINUOUS  HEAD                           ALL TIMES    "1 9312"                                   sim/hds.csv                                                                     
 AP1                                      CONTINUOUS  HEAD                           ALL TIMES    "1 9702"                                   sim/hds.csv                                                                     
 RCK1                                     CONTINUOUS  HEAD                           ALL TIMES    "1 15900"                                  sim/hds.csv                                                                     
 RCK2                                     CONTINUOUS  HEAD                           ALL TIMES    "1 15199"                                  sim/hds.csv                                                                     
 P23                                      CONTINUOUS  HEAD                           ALL TIMES    "1 6409"                                   sim/hds.csv                                                                     
 ----------------------------------------------------------------------------------------------------------------------------------------------------------------------------------------------------------------------------


    BINARY GRID INFORMATION WILL BE WRITTEN TO:
      UNIT NUMBER: 1019
      FILE NAME: /srv/common/ptrack/case_study/pst/ml_10/./ml.disv.grb

 OPENED /srv/common/ptrack/case_study/pst/ml_10/./ml.disv.grb
 FILE TYPE:DATA(BINARY)   UNIT 1019   STATUS:REPLACE             
 FORMAT:UNFORMATTED            ACCESS:STREAM              
 ACTION:READWRITE           

      THE LAST TIME STEP WILL BE PRINTED
      THE LAST TIME STEP WILL BE PRINTED
 # File generated by Flopy version 3.3.5 on 04/28/2022 at 15:59:43.

 PROCESSING OC OPTIONS

    BUDGET INFORMATION WILL BE WRITTEN TO:
      UNIT NUMBER: 1020
      FILE NAME: ml.cbc

 OPENED ml.cbc
 FILE TYPE:DATA(BINARY)   UNIT 1020   STATUS:REPLACE             
 FORMAT:UNFORMATTED            ACCESS:STREAM              
 ACTION:READWRITE           

    HEAD INFORMATION WILL BE WRITTEN TO:
      UNIT NUMBER: 1021
      FILE NAME: ml.hds

 OPENED ml.hds
 FILE TYPE:DATA(BINARY)   UNIT 1021   STATUS:REPLACE             
 FORMAT:UNFORMATTED            ACCESS:STREAM              
 ACTION:READWRITE           

 END OF OC OPTIONS

The observation utility is active for "DRN_0"
 # File generated by Flopy version 3.3.5 on 04/28/2022 at 15:59:43.

Processing observation options:



start timestep kper="1" kstp="1" mode="normal"


 BEGIN READING OUTPUT CONTROL FOR STRESS PERIOD 1
      THE LAST TIME STEP WILL BE SAVED
      THE LAST TIME STEP WILL BE SAVED

 END READING OUTPUT CONTROL FOR STRESS PERIOD 1

 OPENED ext/wel_spd_1.txt
 FILE TYPE:OPEN/CLOSE   UNIT 1023   STATUS:OLD                 
 FORMAT:FORMATTED              ACCESS:SEQUENTIAL          
 ACTION:READ                


 OPENED ext/drn_spd_1.txt
 FILE TYPE:OPEN/CLOSE   UNIT 1024   STATUS:OLD                 
 FORMAT:FORMATTED              ACCESS:SEQUENTIAL          
 ACTION:READ                


 OPENED ext/riv_spd_1.txt
 FILE TYPE:OPEN/CLOSE   UNIT 1025   STATUS:OLD                 
 FORMAT:FORMATTED              ACCESS:SEQUENTIAL          
 ACTION:READ                


 OPENED ../com_ext/ghb_spd_1.txt
 FILE TYPE:OPEN/CLOSE   UNIT 1026   STATUS:OLD                 
 FORMAT:FORMATTED              ACCESS:SEQUENTIAL          
 ACTION:READ                


 OPENED ../com_ext/rech_spd_1.txt
 FILE TYPE:OPEN/CLOSE   UNIT 1027   STATUS:OLD                 
 FORMAT:FORMATTED              ACCESS:SEQUENTIAL          
 ACTION:READ                


 SLN_1 INNER ITERATION SUMMARY
 --------------------------------------------------------------------------------------------------------------------------------------
      TOTAL      OUTER      INNER                                                            MAXIMUM                                   
  ITERATION  ITERATION  ITERATION  MAXIMUM CHANGE      MAXIMUM CHANGE MODEL-(CELLID)        RESIDUAL    MAXIMUM RESIDUAL MODEL-(CELLID)
 --------------------------------------------------------------------------------------------------------------------------------------
          1          1          1      -11.850600                    1_GWF-(1,12785)      0.15901817                    1_GWF-(1,11171)
          2          1          2       7.7850547                    1_GWF-(1,26516)      0.21838530                    1_GWF-(1,10969)
          3          1          3       9.4348943                    1_GWF-(1,26565)      0.20940037                    1_GWF-(1,10968)
          4          1          4       8.6967968                    1_GWF-(1,26510)      0.18719107                    1_GWF-(1,10955)
          5          1          5       6.7512724                    1_GWF-(1,26647)      0.18319212                    1_GWF-(1,10869)
          6          1          6       7.1641301                    1_GWF-(1,26649)      0.14862162                    1_GWF-(1,11140)
          7          1          7       5.5483150                    1_GWF-(1,26622)      0.19820083                    1_GWF-(1,10969)
          8          1          8       4.5348042                    1_GWF-(1,26665)      0.16083118                    1_GWF-(1,10963)
          9          1          9       3.9022289                    1_GWF-(1,26647)      0.16371639                    1_GWF-(1,10956)
         10          1         10       4.5750556                    1_GWF-(1,26665)      0.16197456                    1_GWF-(1,10869)
         11          1         11       4.2007114                    1_GWF-(1,26544)      0.14040801                    1_GWF-(1,10969)
         12          1         12       3.0550744                    1_GWF-(1,26486)      0.13994344                    1_GWF-(1,10966)
         13          1         13       2.9803701                    1_GWF-(1,26622)      0.13083318                    1_GWF-(1,10962)
         14          1         14       2.4505798                    1_GWF-(1,26623)      0.12439292                    1_GWF-(1,10969)
         15          1         15       2.2987267                    1_GWF-(1,26622)      0.14130441                    1_GWF-(1,10968)
         16          1         16       1.5299665                    1_GWF-(1,26623)      0.12929329                    1_GWF-(1,10961)
         17          1         17      -1.5335618                    1_GWF-(1,26623)      0.13193967                    1_GWF-(1,10958)
         18          1         18       2.4372003                    1_GWF-(1,26588)      0.14230668                    1_GWF-(1,10969)
         19          1         19      -3.3009087                    1_GWF-(1,26588)      0.13870576                    1_GWF-(1,10968)
         20          1         20      -3.1047682                    1_GWF-(1,26543)      0.12822679                    1_GWF-(1,10963)
         21          1         21      -2.6820405                    1_GWF-(1,26544)      0.11787735                    1_GWF-(1,10958)
         22          1         22      -3.4517801                    1_GWF-(1,26486)      0.12757540                    1_GWF-(1,10969)
         23          1         23      -3.8776683                    1_GWF-(1,26487)      0.11199038                    1_GWF-(1,10965)
         24          1         24      -4.1387249                    1_GWF-(1,26486)      0.12106424                    1_GWF-(1,10963)
         25          1         25      -3.2975975                    1_GWF-(1,26487)      0.10590701                    1_GWF-(1,10955)
         26          1         26      -2.2241045                    1_GWF-(1,26588)  9.21059130E-02                    1_GWF-(1,10869)
         27          1         27       2.1730479                    1_GWF-(1,26420)      0.11307633                    1_GWF-(1,10965)
         28          1         28       1.8015094                    1_GWF-(1,26487)      0.11345910                    1_GWF-(1,10957)
         29          1         29       1.7836895                    1_GWF-(1,26420)      0.10300179                    1_GWF-(1,10872)
         30          1         30       1.9437836                    1_GWF-(1,26422)      0.10371620                    1_GWF-(1,10965)
         31          1         31       2.2186498                    1_GWF-(1,26350)      0.11656818                    1_GWF-(1,10960)
         32          1         32       2.5412400                    1_GWF-(1,26422)  9.80338763E-02                    1_GWF-(1,10958)
         33          1         33      -2.4712094                    1_GWF-(1,26422) -7.71724371E-02                    1_GWF-(1,10960)
         34          1         34       2.3784242                    1_GWF-(1,26422)  6.49861299E-02                    1_GWF-(1,10966)
         35          1         35      -2.0363099                    1_GWF-(1,26422)  7.08591262E-02                    1_GWF-(1,10958)
         36          1         36      -1.5555281                    1_GWF-(1,26350)  6.04991332E-02                    1_GWF-(1,10968)
         37          1         37      -1.2447063                    1_GWF-(1,26422)  4.58106917E-02                    1_GWF-(1,10961)
         38          1         38     -0.93575948                    1_GWF-(1,24901) -5.34285026E-02                    1_GWF-(1,10967)
         39          1         39     -0.87185467                    1_GWF-(1,24906)  4.61879209E-02                    1_GWF-(1,10968)
         40          1         40      -1.0575655                    1_GWF-(1,26648)  4.25384419E-02                    1_GWF-(1,10961)
         41          1         41      -1.3893640                    1_GWF-(1,26649)  4.59438552E-02                    1_GWF-(1,10963)
         42          1         42      -1.4729088                    1_GWF-(1,26648) -4.57462915E-02                    1_GWF-(1,10991)
         43          1         43      -1.2650006                    1_GWF-(1,26586) -5.89318856E-02                    1_GWF-(1,11138)
         44          1         44      -1.1068139                    1_GWF-(1,26623)  4.22864886E-02                    1_GWF-(1,11140)
         45          1         45      0.98421774                    1_GWF-(1,26218) -5.19780462E-02                    1_GWF-(1,11140)
         46          1         46     -0.87378317                    1_GWF-(1,21319) -4.65665723E-02                    1_GWF-(1,11138)
         47          1         47      -1.0884205                    1_GWF-(1,26217)  4.56400794E-02                    1_GWF-(1,11139)
         48          1         48      -1.4071700                    1_GWF-(1,26218)  4.75238391E-02                    1_GWF-(1,14868)
         49          1         49      -1.4648224                    1_GWF-(1,26217) -4.89034941E-02                    1_GWF-(1,10990)
         50          1         50      -1.3664997                    1_GWF-(1,26218)  4.35011580E-02                    1_GWF-(1,14868)
         51          2          1      -41.240509                    1_GWF-(1,26519)     -0.14296990                    1_GWF-(1,26519)
         52          2          2      -15.985796                    1_GWF-(1,26513) -4.50558891E-02                    1_GWF-(1,26516)
         53          2          3      -7.6109471                    1_GWF-(1,26637)  3.55911288E-02                    1_GWF-(1,26516)
         54          2          4      -9.2612658                    1_GWF-(1,26665)  3.48717480E-02                    1_GWF-(1,14868)
         55          2          5      -4.9309914                    1_GWF-(1,26622)  2.83731502E-02                    1_GWF-(1,14869)
         56          2          6      -4.7539110                    1_GWF-(1,26589)  4.24872887E-02                    1_GWF-(1,14868)
         57          2          7      -3.8418160                    1_GWF-(1,26543)  3.96946715E-02                    1_GWF-(1,14869)
         58          2          8      -3.5731539                    1_GWF-(1,26486)  6.44531531E-02                    1_GWF-(1,14868)
         59          2          9      -2.4016959                    1_GWF-(1,26487)  4.21439547E-02                    1_GWF-(1,14869)
         60          2         10      -2.2673005                    1_GWF-(1,26350)  4.11964231E-02                    1_GWF-(1,14868)
         61          2         11      -1.8759905                    1_GWF-(1,26348)  1.07547617E-02                    1_GWF-(1,14868)
         62          2         12      -1.6379223                    1_GWF-(1,26217)  2.37769131E-02                    1_GWF-(1,14869)
         63          2         13      -1.0427459                    1_GWF-(1,26218)  3.72114019E-02                    1_GWF-(1,14868)
         64          2         14     -0.69247734                    1_GWF-(1,26649)  3.02599004E-02                    1_GWF-(1,14869)
         65          2         15     -0.73726115                    1_GWF-(1,26622)  2.57615099E-02                    1_GWF-(1,14868)
         66          2         16      0.88676955                    1_GWF-(1,26420)  2.54440893E-02                    1_GWF-(1,14868)
         67          2         17       1.1652389                    1_GWF-(1,26218)  2.85615994E-02                    1_GWF-(1,14869)
         68          2         18      0.96877288                    1_GWF-(1,26217)  4.01689034E-02                    1_GWF-(1,14868)
         69          2         19      0.84736946                    1_GWF-(1,26218)  2.56425465E-02                    1_GWF-(1,14869)
         70          2         20      0.66305053                    1_GWF-(1,26543)  2.33593579E-02                    1_GWF-(1,14868)
         71          2         21      0.94254890                    1_GWF-(1,26588)  1.63381863E-02                    1_GWF-(1,14868)
         72          2         22      0.98969445                    1_GWF-(1,26543)  2.54782027E-02                    1_GWF-(1,14869)
         73          2         23     -0.62624815                    1_GWF-(1,26218)  4.60662186E-02                    1_GWF-(1,14868)
         74          2         24     -0.82332511                    1_GWF-(1,26487)  3.64077304E-02                    1_GWF-(1,14869)
         75          2         25      -1.1256452                    1_GWF-(1,26486)  3.62305755E-02                    1_GWF-(1,14868)
         76          2         26      -1.1191332                    1_GWF-(1,26487)  1.32475850E-02                    1_GWF-(1,14868)
         77          2         27     -0.72364885                    1_GWF-(1,26588)  2.84351109E-02                    1_GWF-(1,14869)
         78          2         28     -0.35093271                    1_GWF-(1,26398)  4.73485382E-02                    1_GWF-(1,14868)
         79          2         29     -0.39005995                    1_GWF-(1,26327)  4.33337152E-02                    1_GWF-(1,14869)
         80          2         30      0.35866374                    1_GWF-(1,26420)  6.60662029E-02                    1_GWF-(1,14868)
         81          2         31     -0.25830826                    1_GWF-(1,26178)  6.01529522E-02                    1_GWF-(1,14869)
         82          2         32     -0.26306517                    1_GWF-(1,26674)  9.06816218E-02                    1_GWF-(1,14868)
         83          2         33     -0.24319452                    1_GWF-(1,26350)  7.51030567E-02                    1_GWF-(1,14869)
         84          2         34     -0.19565308                    1_GWF-(1,25803)  9.75663525E-02                    1_GWF-(1,14868)
         85          2         35      0.31699596                    1_GWF-(1,26422)  6.58785986E-02                    1_GWF-(1,14869)
         86          2         36      0.26733617                    1_GWF-(1,26350)  6.85892720E-02                    1_GWF-(1,14868)
         87          2         37      0.20318942                    1_GWF-(1,26422)  3.76416995E-02                    1_GWF-(1,14869)
         88          2         38      0.20208942                    1_GWF-(1,26544)  2.81973270E-02                    1_GWF-(1,14868)
         89          2         39     -0.21219420                    1_GWF-(1,26649)  2.94156810E-02                    1_GWF-(1,14868)
         90          2         40     -0.29850740                    1_GWF-(1,26486)  5.20660938E-02                    1_GWF-(1,14869)
         91          2         41      0.23053653                    1_GWF-(1,26422)  9.72697507E-02                    1_GWF-(1,14868)
         92          2         42     -0.24305748                    1_GWF-(1,26421)     -0.11438238                    1_GWF-(1,14868)
         93          2         43     -0.36457205                    1_GWF-(1,26350)      0.14338863                    1_GWF-(1,14868)
         94          2         44     -0.22551869                    1_GWF-(1,26486)     -0.13138610                    1_GWF-(1,14868)
         95          2         45     -0.26818729                    1_GWF-(1,26420)      0.13778518                    1_GWF-(1,14868)
         96          2         46     -0.17812505                    1_GWF-(1,26421) -9.97082672E-02                    1_GWF-(1,14868)
         97          2         47     -0.25439546                    1_GWF-(1,26350)  8.55409441E-02                    1_GWF-(1,14868)
         98          2         48     -0.17956754                    1_GWF-(1,26664) -5.85692008E-02                    1_GWF-(1,14868)
         99          2         49     -0.17095831                    1_GWF-(1,26649)  5.80503454E-02                    1_GWF-(1,14868)
        100          2         50     -0.20073872                    1_GWF-(1,26623) -4.28665027E-02                    1_GWF-(1,14868)
        101          3          1     -0.23927428                    1_GWF-(1,16215)  2.62329409E-02                    1_GWF-(1,14868)
        102          3          2      0.17500049                    1_GWF-(1,26586) -5.63564223E-02                    1_GWF-(1,14868)
        103          3          3      0.24533394                    1_GWF-(1,26623)  6.39187941E-02                    1_GWF-(1,14868)
        104          3          4      0.17711773                    1_GWF-(1,26649) -4.82651790E-02                    1_GWF-(1,14868)
        105          3          5     -0.18984761                    1_GWF-(1,16130)  6.27559736E-02                    1_GWF-(1,14868)
        106          3          6      0.16557420                    1_GWF-(1,16130) -6.84519529E-02                    1_GWF-(1,14868)
        107          3          7      0.12917456                    1_GWF-(1,26198)  6.74387762E-02                    1_GWF-(1,14868)
        108          3          8     -0.16045681                    1_GWF-(1,26674) -5.23963896E-02                    1_GWF-(1,14868)
        109          3          9      0.13749254                    1_GWF-(1,16130)  5.95801122E-02                    1_GWF-(1,14868)
        110          3         10      0.12665894                    1_GWF-(1,26350) -4.34864869E-02                    1_GWF-(1,14868)
        111          3         11      0.12570844                    1_GWF-(1,26486)  3.72576745E-02                    1_GWF-(1,14868)
        112          3         12     -0.15015636                    1_GWF-(1,26422)  1.86483405E-02                    1_GWF-(1,14869)
        113          3         13     -0.10932475                    1_GWF-(1,26350)  1.31218857E-02                    1_GWF-(1,14868)
        114          3         14      0.13037096                    1_GWF-(1,26350)  4.39050742E-03                    1_GWF-(1,14867)
        115          3         15     -0.12131993                    1_GWF-(1,26350)  1.01702669E-02                    1_GWF-(1,14869)
        116          3         16     -0.12764440                    1_GWF-(1,26422)  2.24588997E-02                    1_GWF-(1,14868)
        117          3         17      0.10234009                    1_GWF-(1,26422)  2.14827754E-02                    1_GWF-(1,14869)
        118          3         18      0.11880620                    1_GWF-(1,26350)  3.47035941E-02                    1_GWF-(1,14868)
        119          3         19 -7.64874172E-02                    1_GWF-(1,26350) -3.69173600E-02                    1_GWF-(1,14868)
        120          3         20  8.62193246E-02                    1_GWF-(1,26420)  4.43678528E-02                    1_GWF-(1,14868)
        121          3         21 -8.20727669E-02                    1_GWF-(1,26420) -3.90689008E-02                    1_GWF-(1,14868)
        122          3         22 -9.14261528E-02                    1_GWF-(1,25297)  4.16804354E-02                    1_GWF-(1,14868)
        123          3         23     -0.11062072                    1_GWF-(1,25444) -3.18729096E-02                    1_GWF-(1,14868)
        124          3         24      0.12232958                    1_GWF-(1,26588)  2.77666065E-02                    1_GWF-(1,14868)
        125          3         25      0.15884479                    1_GWF-(1,26487)  8.69433572E-03                    1_GWF-(1,14869)
        126          3         26      0.19212479                    1_GWF-(1,26420)  9.16641907E-03                    1_GWF-(1,14869)
        127          3         27      0.21440957                    1_GWF-(1,26487)  2.20664867E-02                    1_GWF-(1,14868)
        128          3         28     -0.13831926                    1_GWF-(1,26487) -1.68542627E-02                    1_GWF-(1,14868)
        129          3         29     -0.16567682                    1_GWF-(1,26486)  1.62112557E-02                    1_GWF-(1,14868)
        130          3         30     -0.15630509                    1_GWF-(1,26588)  3.91135497E-03                    1_GWF-(1,14869)
        131          3         31     -0.15252034                    1_GWF-(1,26543)  5.02719378E-03                    1_GWF-(1,14869)
        132          3         32     -0.14970908                    1_GWF-(1,26588)  1.17752514E-02                    1_GWF-(1,14868)
        133          3         33      0.12284128                    1_GWF-(1,26588)  9.17995847E-03                    1_GWF-(1,14869)
        134          3         34  9.28106627E-02                    1_GWF-(1,26543)  1.02541876E-02                    1_GWF-(1,14868)
        135          3         35     -0.11385842                    1_GWF-(1,26665)  2.95694385E-03                    1_GWF-(1,14869)
        136          3         36      0.10370909                    1_GWF-(1,26665)  2.70855866E-03                    1_GWF-(1,14869)
        137          3         37      0.12118125                    1_GWF-(1,26666)  5.71576915E-03                    1_GWF-(1,14868)
        138          3         38      0.12497951                    1_GWF-(1,26622) -4.60384430E-03                    1_GWF-(1,14868)
        139          3         39  9.10985335E-02                    1_GWF-(1,26217)  4.01644196E-03                    1_GWF-(1,14868)
        140          3         40     -0.12808379                    1_GWF-(1,26665)  1.50107871E-03                    1_GWF-(1,14782)
        141          3         41      0.12624894                    1_GWF-(1,26665) -2.73496002E-03                    1_GWF-(1,14868)
        142          3         42     -0.14864163                    1_GWF-(1,26665)  4.81871123E-03                    1_GWF-(1,14868)
        143          3         43     -0.13401501                    1_GWF-(1,26666) -4.96851183E-03                    1_GWF-(1,14868)
        144          3         44      0.12518865                    1_GWF-(1,26543)  5.12104148E-03                    1_GWF-(1,14868)
        145          3         45      0.14581889                    1_GWF-(1,26649)  3.52794542E-03                    1_GWF-(1,14782)
        146          3         46      0.15173761                    1_GWF-(1,26648)  5.35812282E-03                    1_GWF-(1,14867)
        147          3         47  9.14735653E-02                    1_GWF-(1,26664) -4.57531407E-03                    1_GWF-(1,14867)
        148          3         48  9.27403785E-02                    1_GWF-(1,26217)  4.06268119E-03                    1_GWF-(1,14867)
        149          3         49     -0.10631989                    1_GWF-(1,26648) -4.98063853E-03                    1_GWF-(1,14867)
        150          3         50     -0.10495068                    1_GWF-(1,26218)  4.20725144E-03                    1_GWF-(1,14867)
        151          4          1 -6.80060000E-02                    1_GWF-(1,26217) -3.27024505E-03                    1_GWF-(1,14867)
        152          4          2 -6.96111205E-02                    1_GWF-(1,26218)  3.17823826E-03                    1_GWF-(1,14867)
        153          4          3 -7.52082219E-02                    1_GWF-(1,26217)  2.43077925E-03                    1_GWF-(1,14782)
        154          4          4 -7.45209099E-02                    1_GWF-(1,26218)  2.97890091E-03                    1_GWF-(1,14867)
        155          4          5 -5.34449059E-02                    1_GWF-(1,26422)  1.92369654E-03                    1_GWF-(1,14782)
        156          4          6 -4.77518578E-02                    1_GWF-(1,26218)  1.93438262E-03                    1_GWF-(1,14868)
        157          4          7 -3.63268248E-02                    1_GWF-(1,26485) -1.46633200E-03                    1_GWF-(1,14868)
        158          4          8 -4.94685115E-02                    1_GWF-(1,26665)  1.83248666E-03                    1_GWF-(1,14868)
        159          4          9 -6.00103732E-02                    1_GWF-(1,26666) -1.49619359E-03                    1_GWF-(1,14868)
        160          4         10 -5.87447960E-02                    1_GWF-(1,26665) -9.62714812E-04                    1_GWF-(1,14867)
        161          4         11  5.91399410E-02                    1_GWF-(1,26665)  5.33548161E-04                    1_GWF-(1,10957)
        162          4         12  3.60736844E-02                    1_GWF-(1,26622)  1.02700675E-03                    1_GWF-(1,14869)
        163          4         13  3.66644512E-02                    1_GWF-(1,26623)  1.67891341E-03                    1_GWF-(1,14868)
        164          4         14  5.05309210E-02                    1_GWF-(1,26622)  1.20400428E-03                    1_GWF-(1,14869)
        165          4         15  4.32172982E-02                    1_GWF-(1,26623)  7.57264724E-04                    1_GWF-(1,14782)
        166          4         16  3.47071276E-02                    1_GWF-(1,26665)  1.03056567E-03                    1_GWF-(1,14868)
        167          4         17  2.54391191E-02                    1_GWF-(1,26588) -1.25524477E-03                    1_GWF-(1,14868)
        168          4         18  2.07458825E-02                    1_GWF-(1,26543)  1.49289251E-03                    1_GWF-(1,14868)
        169          4         19 -2.42041477E-02                    1_GWF-(1,26543) -1.43131875E-03                    1_GWF-(1,14868)
        170          4         20 -3.34003532E-02                    1_GWF-(1,26588)  6.33823925E-04                    1_GWF-(1,14868)
        171          4         21 -3.22074646E-02                    1_GWF-(1,26543)  9.99613567E-04                    1_GWF-(1,14868)
        172          4         22 -2.37719529E-02                    1_GWF-(1,26588)  1.63316877E-03                    1_GWF-(1,14869)
        173          4         23 -2.99470691E-02                    1_GWF-(1,26486)  2.48607364E-03                    1_GWF-(1,14868)
        174          4         24 -3.42632890E-02                    1_GWF-(1,26487)  1.75339717E-03                    1_GWF-(1,14869)
        175          4         25 -2.90019506E-02                    1_GWF-(1,26420)  7.78082229E-04                    1_GWF-(1,14868)
        176          4         26 -2.45527064E-02                    1_GWF-(1,26487)  1.43890630E-03                    1_GWF-(1,14868)
        177          4         27 -1.79944627E-02                    1_GWF-(1,26420) -2.52356526E-03                    1_GWF-(1,14868)
        178          4         28 -1.25386074E-02                    1_GWF-(1,26421)  3.97335756E-03                    1_GWF-(1,14868)
        179          4         29  1.04845144E-02                    1_GWF-(1,26543) -4.45946699E-03                    1_GWF-(1,14868)
        180          4         30  1.24214019E-02                    1_GWF-(1,26420)  5.11896889E-03                    1_GWF-(1,14868)
        181          4         31  1.84950147E-02                    1_GWF-(1,26422) -4.49846582E-03                    1_GWF-(1,14868)
        182          4         32  1.90452674E-02                    1_GWF-(1,26350)  5.28218135E-03                    1_GWF-(1,14868)
        183          4         33  1.92043690E-02                    1_GWF-(1,26421) -3.66193000E-03                    1_GWF-(1,14868)
        184          4         34  1.90666342E-02                    1_GWF-(1,26350)  3.95449471E-03                    1_GWF-(1,14868)
        185          4         35  1.97034108E-02                    1_GWF-(1,26422)  2.01089567E-03                    1_GWF-(1,14869)
        186          4         36  1.11263588E-02                    1_GWF-(1,26350)  1.74980957E-03                    1_GWF-(1,14867)
        187          4         37 -1.70601002E-02                    1_GWF-(1,26350)  1.49728037E-03                    1_GWF-(1,14782)
        188          4         38 -1.49837630E-02                    1_GWF-(1,26422)  1.93856022E-03                    1_GWF-(1,14867)
        189          4         39 -1.41215925E-02                    1_GWF-(1,26544)  2.17771784E-03                    1_GWF-(1,14868)
        190          4         40 -1.47054306E-02                    1_GWF-(1,26486)  2.16763345E-03                    1_GWF-(1,14869)
        191          4         41 -1.14198251E-02                    1_GWF-(1,26350)  2.99171537E-03                    1_GWF-(1,14868)
        192          4         42 -8.84992444E-03                    1_GWF-(1,26422) -2.56223195E-03                    1_GWF-(1,14868)
        193          4         43 -8.30634197E-03                    1_GWF-(1,26544)  3.19013308E-03                    1_GWF-(1,14868)
        194          4         44 -6.45490064E-03                    1_GWF-(1,26486) -2.70404332E-03                    1_GWF-(1,14868)
        195          4         45 -5.79950879E-03                    1_GWF-(1,16130)  3.07153757E-03                    1_GWF-(1,14868)
        196          4         46  6.22382889E-03                    1_GWF-(1,16130) -2.82141734E-03                    1_GWF-(1,14868)
        197          4         47  7.89694137E-03                    1_GWF-(1,26672)  3.36731324E-03                    1_GWF-(1,14868)
        198          4         48 -6.04584408E-03                    1_GWF-(1,26623) -3.17152870E-03                    1_GWF-(1,14868)
        199          4         49  7.35346403E-03                    1_GWF-(1,16130)  2.32056581E-03                    1_GWF-(1,14868)
        200          4         50  7.49937880E-03                    1_GWF-(1,26326) -2.37012343E-03                    1_GWF-(1,14868)
        201          5          1 -9.94154235E-03                    1_GWF-(1,11933)  1.77850066E-03                    1_GWF-(1,14868)
        202          5          2 -4.85476237E-03                    1_GWF-(1,11934) -2.38935593E-03                    1_GWF-(1,14868)
        203          5          3 -5.33133917E-03                    1_GWF-(1,26673)  2.39871819E-03                    1_GWF-(1,14868)
        204          5          4 -5.52470673E-03                    1_GWF-(1,26672) -2.29601717E-03                    1_GWF-(1,14868)
        205          5          5  4.95491630E-03                    1_GWF-(1,26422)  2.30222404E-03                    1_GWF-(1,14868)
        206          5          6 -3.35386956E-03                    1_GWF-(1,20231) -2.17351933E-03                    1_GWF-(1,14868)
        207          5          7 -4.35105611E-03                    1_GWF-(1,26350)  2.49914004E-03                    1_GWF-(1,14868)
        208          5          8 -5.36155804E-03                    1_GWF-(1,26422) -2.17889368E-03                    1_GWF-(1,14868)
        209          5          9  3.56786209E-03                    1_GWF-(1,26588)  2.29314187E-03                    1_GWF-(1,14868)
        210          5         10  4.74181872E-03                    1_GWF-(1,26350) -1.58461006E-03                    1_GWF-(1,14868)
        211          5         11  6.57785048E-03                    1_GWF-(1,26486)  1.59971123E-03                    1_GWF-(1,14868)
        212          5         12  6.29514244E-03                    1_GWF-(1,26544)  9.07473091E-04                    1_GWF-(1,14869)
        213          5         13  7.32165984E-03                    1_GWF-(1,26422)  5.74224078E-04                    1_GWF-(1,14782)
        214          5         14 -7.95547618E-03                    1_GWF-(1,26486)  5.40623065E-04                    1_GWF-(1,14868)
        215          5         15 -7.29251304E-03                    1_GWF-(1,26544)  8.19185096E-04                    1_GWF-(1,14869)
        216          5         16 -8.25013234E-03                    1_GWF-(1,26486)  1.18818399E-03                    1_GWF-(1,14868)
        217          5         17 -8.59045661E-03                    1_GWF-(1,26588)  5.99418708E-04                    1_GWF-(1,14867)
        218          5         18 -7.58484983E-03                    1_GWF-(1,26589)  5.41999665E-04                    1_GWF-(1,14869)
        219          5         19 -8.71644689E-03                    1_GWF-(1,26422)  1.42730524E-03                    1_GWF-(1,14868)
        220          5         20 -9.20442633E-03                    1_GWF-(1,26350) -1.68830211E-03                    1_GWF-(1,14868)
        221          5         21 -6.40099020E-03                    1_GWF-(1,26422)  2.32782525E-03                    1_GWF-(1,14868)
        222          5         22  4.41985161E-03                    1_GWF-(1,26486) -2.27931129E-03                    1_GWF-(1,14868)
        223          5         23 -4.46410183E-03                    1_GWF-(1,25443)  2.20029720E-03                    1_GWF-(1,14868)
        224          5         24  5.89053030E-03                    1_GWF-(1,26486) -1.37546945E-03                    1_GWF-(1,14868)
        225          5         25  6.13701560E-03                    1_GWF-(1,26487)  5.75625857E-04                    1_GWF-(1,14868)
        226          5         26 -5.89346787E-03                    1_GWF-(1,26622)  8.11071145E-04                    1_GWF-(1,14868)
        227          5         27 -6.60606154E-03                    1_GWF-(1,26649) -1.22934307E-03                    1_GWF-(1,14868)
        228          5         28  5.39219948E-03                    1_GWF-(1,26420)  1.58527177E-03                    1_GWF-(1,14868)
        229          5         29 -3.43685761E-03                    1_GWF-(1,22711) -1.18320262E-03                    1_GWF-(1,14868)
        230          5         30 -3.85757753E-03                    1_GWF-(1,22718)  1.08428983E-03                    1_GWF-(1,14868)
        231          5         31  3.37988346E-03                    1_GWF-(1,26674) -6.57256783E-04                    1_GWF-(1,14868)
        232          5         32 -3.96827619E-03                    1_GWF-(1,26623)  5.17396563E-04                    1_GWF-(1,14868)
        233          5         33  4.10022663E-03                    1_GWF-(1,26647) -3.49762706E-04                    1_GWF-(1,14867)
        234          5         34  5.63544516E-03                    1_GWF-(1,26622)  5.54525923E-04                    1_GWF-(1,14867)
        235          5         35 -7.72632315E-03                    1_GWF-(1,26665)  4.00489842E-04                    1_GWF-(1,14782)
        236          5         36 -5.80263833E-03                    1_GWF-(1,26666)  3.29851674E-04                    1_GWF-(1,14869)
        237          5         37 -4.16141471E-03                    1_GWF-(1,26622)  4.33239967E-04                    1_GWF-(1,14868)
        238          5         38 -3.75184186E-03                    1_GWF-(1,26589) -3.90517977E-04                    1_GWF-(1,14867)
        239          5         39 -4.90729252E-03                    1_GWF-(1,26588)  6.44195226E-04                    1_GWF-(1,14867)
        240          5         40 -4.28863350E-03                    1_GWF-(1,26589) -7.04475912E-04                    1_GWF-(1,14867)
        241          5         41  5.38218176E-03                    1_GWF-(1,26665)  5.79971783E-04                    1_GWF-(1,14867)
        242          5         42  7.54945567E-03                    1_GWF-(1,26588)  1.87270860E-04                    1_GWF-(1,14868)
        243          5         43  6.41422745E-03                    1_GWF-(1,26589) -4.24567620E-04                    1_GWF-(1,14867)
        244          5         44  5.18040937E-03                    1_GWF-(1,26588)  7.50344718E-04                    1_GWF-(1,14867)
        245          5         45  3.60444031E-03                    1_GWF-(1,26665) -8.79290826E-04                    1_GWF-(1,14867)
        246          5         46  2.79661313E-03                    1_GWF-(1,26666)  9.99633771E-04                    1_GWF-(1,14867)
        247          5         47  2.93989881E-03                    1_GWF-(1,26218) -8.49557164E-04                    1_GWF-(1,14867)
        248          5         48  3.67096317E-03                    1_GWF-(1,26217)  8.31816744E-04                    1_GWF-(1,14867)
        249          5         49  2.91265838E-03                    1_GWF-(1,26218) -7.68664439E-04                    1_GWF-(1,14867)
        250          5         50 -2.38377717E-03                    1_GWF-(1,26218)  7.00487314E-04                    1_GWF-(1,14867)
        251          6          1 -8.35131096E-03                    1_GWF-(1,11460) -4.48365184E-04                    1_GWF-(1,14867)
        252          6          2 -3.82510238E-03                    1_GWF-(1,11439)  5.56028703E-04                    1_GWF-(1,14867)
        253          6          3 -3.27191590E-03                    1_GWF-(1,26217) -5.39107023E-04                    1_GWF-(1,14867)
        254          6          4 -3.34662869E-03                    1_GWF-(1,26218)  5.87429482E-04                    1_GWF-(1,14867)
        255          6          5 -2.78195401E-03                    1_GWF-(1,26422) -4.93688345E-04                    1_GWF-(1,14867)
        256          6          6 -2.43069810E-03                    1_GWF-(1,26218)  4.52759674E-04                    1_GWF-(1,14867)
        257          6          7  2.19346440E-03                    1_GWF-(1,11440) -2.18741913E-04                    1_GWF-(1,14867)
        258          6          8 -2.56061831E-03                    1_GWF-(1,26665)  1.09788156E-04                    1_GWF-(1,14868)
        259          6          9 -3.04278969E-03                    1_GWF-(1,26588)  2.19856236E-04                    1_GWF-(1,14867)
        260          6         10 -2.35139746E-03                    1_GWF-(1,26665) -2.23418577E-04                    1_GWF-(1,14867)
        261          6         11  1.97293932E-03                    1_GWF-(1,26543)  1.78345834E-04                    1_GWF-(1,14867)
        262          6         12  2.20884973E-03                    1_GWF-(1,26588)  7.33163552E-05                    1_GWF-(1,14869)
        263          6         13  1.77243499E-03                    1_GWF-(1,26589)  1.22050212E-04                    1_GWF-(1,14868)
        264          6         14  1.66752341E-03                    1_GWF-(1,26588)  1.19606892E-04                    1_GWF-(1,14867)
        265          6         15  1.73080852E-03                    1_GWF-(1,26649)  1.54852555E-04                    1_GWF-(1,14782)
        266          6         16  2.19434549E-03                    1_GWF-(1,26665)  1.48685609E-04                    1_GWF-(1,14867)
        267          6         17  1.54530294E-03                    1_GWF-(1,26543)  4.24474417E-05                    1_GWF-(1,10962)
        268          6         18  1.00136145E-03                    1_GWF-(1,26588)  8.28139409E-05                    1_GWF-(1,14868)
        269          6         19 -8.96080429E-04                    1_GWF-(1,26665)  1.09742782E-04                    1_GWF-(1,14867)
        270          6         20  9.50499856E-04                    1_GWF-(1,24664)  1.68993795E-04                    1_GWF-(1,14868)
        271          6         21 -1.00143526E-03                    1_GWF-(1,26588)  2.12370112E-04                    1_GWF-(1,14867)
        272          6         22 -1.15605771E-03                    1_GWF-(1,26486)  1.74229593E-04                    1_GWF-(1,14868)
        273          6         23 -1.29002399E-03                    1_GWF-(1,26649)  6.66987062E-05                    1_GWF-(1,14869)
        274          6         24 -1.40596287E-03                    1_GWF-(1,26622)  1.06645687E-04                    1_GWF-(1,14867)
        275          6         25 -1.16235973E-03                    1_GWF-(1,26623)  1.64507476E-04                    1_GWF-(1,14868)
        276          6         26 -9.16118060E-04                    1_GWF-(1,26217)  2.17222382E-04                    1_GWF-(1,14867)
        277          6         27 -9.33050111E-04                    1_GWF-(1,26421)  2.82468836E-04                    1_GWF-(1,14868)
        278          6         28 -8.89262490E-04                    1_GWF-(1,26420) -2.66863743E-04                    1_GWF-(1,14868)
        279          6         29  8.68322992E-04                    1_GWF-(1,26420)  2.75082946E-04                    1_GWF-(1,14868)
        280          6         30  1.05508128E-03                    1_GWF-(1,26422) -1.87475189E-04                    1_GWF-(1,14868)
        281          6         31  1.23736552E-03                    1_GWF-(1,26420)  9.99321634E-05                    1_GWF-(1,14868)
        282          6         32  1.50010847E-03                    1_GWF-(1,26487)  1.27138203E-04                    1_GWF-(1,14868)
        283          6         33  1.28543547E-03                    1_GWF-(1,26486)  1.76504303E-04                    1_GWF-(1,14869)
        284          6         34  9.30551495E-04                    1_GWF-(1,26487)  2.36939018E-04                    1_GWF-(1,14868)
        285          6         35  8.80149053E-04                    1_GWF-(1,26486)  1.50734434E-04                    1_GWF-(1,14869)
        286          6         36  6.49562877E-04                    1_GWF-(1,26544)  1.54841947E-04                    1_GWF-(1,14868)
        287          6         37 -1.02995839E-03                    1_GWF-(1,26350)  1.08612951E-04                    1_GWF-(1,14782)
        288          6         38 -9.92261952E-04                    1_GWF-(1,26422)  1.54057676E-04                    1_GWF-(1,14867)
        289          6         39 -6.85147415E-04                    1_GWF-(1,26350)  1.13817577E-04                    1_GWF-(1,14782)
        290          6         40 -6.34585832E-04                    1_GWF-(1,26486)  1.15149123E-04                    1_GWF-(1,14867)
        291          6         41 -5.94445049E-04                    1_GWF-(1,26350)  1.54212963E-04                    1_GWF-(1,14868)
        292          6         42 -4.51484902E-04                    1_GWF-(1,26422) -1.56698106E-04                    1_GWF-(1,14868)
        293          6         43  4.20605298E-04                    1_GWF-(1,26422)  2.17056619E-04                    1_GWF-(1,14868)
        294          6         44  4.79116494E-04                    1_GWF-(1,26350) -1.94052945E-04                    1_GWF-(1,14868)
        295          6         45  2.65670561E-04                    1_GWF-(1,26486)  2.25476977E-04                    1_GWF-(1,14868)
        296          6         46  2.65856998E-04                    1_GWF-(1,26544) -2.13143045E-04                    1_GWF-(1,14868)
        297          6         47 -3.13492620E-04                    1_GWF-(1,25786)  2.02398552E-04                    1_GWF-(1,14868)
        298          6         48 -3.08977664E-04                    1_GWF-(1,25765) -1.70233059E-04                    1_GWF-(1,14868)
        299          6         49 -2.85092226E-04                    1_GWF-(1,25727)  1.36897508E-04                    1_GWF-(1,14868)
        300          6         50  2.75639072E-04                    1_GWF-(1,26533) -1.32701373E-04                    1_GWF-(1,14868)
        301          7          1  2.18966857E-04                    1_GWF-(1,26672)  1.34824135E-04                    1_GWF-(1,14868)
        302          7          2 -2.55251803E-04                    1_GWF-(1,26218) -1.45281012E-04                    1_GWF-(1,14868)
        303          7          3 -2.30259734E-04                    1_GWF-(1,26323)  1.54021485E-04                    1_GWF-(1,14868)
        304          7          4  2.93632118E-04                    1_GWF-(1,26217) -1.67103311E-04                    1_GWF-(1,14868)
        305          7          5 -2.55688194E-04                    1_GWF-(1,26544)  1.79071293E-04                    1_GWF-(1,14868)
        306          7          6 -2.64448020E-04                    1_GWF-(1,26486) -1.66232736E-04                    1_GWF-(1,14868)
        307          7          7 -3.61930517E-04                    1_GWF-(1,26350)  1.80693605E-04                    1_GWF-(1,14868)
        308          7          8 -3.91248499E-04                    1_GWF-(1,26422) -1.36632664E-04                    1_GWF-(1,14868)
        309          7          9  3.14371910E-04                    1_GWF-(1,26588)  1.22884635E-04                    1_GWF-(1,14868)
        310          7         10  2.70271031E-04                    1_GWF-(1,26350)  7.03605971E-05                    1_GWF-(1,14867)
        311          7         11  3.58851656E-04                    1_GWF-(1,26588)  6.34039856E-05                    1_GWF-(1,14782)
        312          7         12 -4.78772260E-04                    1_GWF-(1,26588)  6.20119563E-05                    1_GWF-(1,14867)
        313          7         13  5.73462188E-04                    1_GWF-(1,26588)  5.79732756E-05                    1_GWF-(1,14869)
        314          7         14 -4.02103103E-04                    1_GWF-(1,26588)  6.57883311E-05                    1_GWF-(1,14868)
        315          7         15 -4.24590809E-04                    1_GWF-(1,26486)  8.34150341E-05                    1_GWF-(1,14867)
        316          7         16 -3.87329444E-04                    1_GWF-(1,26544)  7.01865867E-05                    1_GWF-(1,14782)
        317          7         17 -4.27035107E-04                    1_GWF-(1,26486)  7.96142322E-05                    1_GWF-(1,14868)
        318          7         18 -4.40578376E-04                    1_GWF-(1,26589)  7.12713160E-05                    1_GWF-(1,14869)
        319          7         19 -4.56086181E-04                    1_GWF-(1,26588)  7.79366093E-05                    1_GWF-(1,14868)
        320          7         20  5.07627219E-04                    1_GWF-(1,26588)  6.71784924E-05                    1_GWF-(1,14867)
        321          7         21 -4.78402861E-04                    1_GWF-(1,26420) -5.10444094E-05                    1_GWF-(1,14867)
        322          7         22 -4.77282213E-04                    1_GWF-(1,26422)  8.09118159E-05                    1_GWF-(1,14868)
        323          7         23  3.75996001E-04                    1_GWF-(1,26422) -9.22948197E-05                    1_GWF-(1,14868)
        324          7         24  3.55105651E-04                    1_GWF-(1,26420)  1.10169441E-04                    1_GWF-(1,14868)
        325          7         25  3.77894057E-04                    1_GWF-(1,26486) -9.43597843E-05                    1_GWF-(1,14868)
        326          7         26  3.12983314E-04                    1_GWF-(1,26544)  7.77809865E-05                    1_GWF-(1,14868)
        327          7         27  3.74213268E-04                    1_GWF-(1,26486)  3.71747685E-05                    1_GWF-(1,14867)
        328          7         28  4.50074853E-04                    1_GWF-(1,26487) -3.82558185E-05                    1_GWF-(1,14868)
        329          7         29  3.80946752E-04                    1_GWF-(1,26420)  8.31648439E-05                    1_GWF-(1,14868)
        330          7         30 -3.30977094E-04                    1_GWF-(1,26420) -8.20759749E-05                    1_GWF-(1,14868)
        331          7         31 -2.27506652E-04                    1_GWF-(1,26421)  7.99924477E-05                    1_GWF-(1,14868)
        332          7         32 -2.00098812E-04                    1_GWF-(1,24661) -6.03392745E-05                    1_GWF-(1,14868)
        333          7         33 -2.05545206E-04                    1_GWF-(1,26218)  5.42835267E-05                    1_GWF-(1,14868)
        334          7         34  1.92574439E-04                    1_GWF-(1,26623)  4.37841551E-05                    1_GWF-(1,14867)
        335          7         35 -2.26613440E-04                    1_GWF-(1,26175)  4.13321866E-05                    1_GWF-(1,14868)
        336          7         36  2.34063118E-04                    1_GWF-(1,26218)  2.32373994E-05                    1_GWF-(1,14869)
        337          7         37 -1.54276034E-04                    1_GWF-(1,26390)  2.48888369E-05                    1_GWF-(1,14868)
        338          7         38 -2.17085993E-04                    1_GWF-(1,26586)  1.65006008E-05                    1_GWF-(1,14782)
        339          7         39 -2.15770341E-04                    1_GWF-(1,26587)  3.36447899E-05                    1_GWF-(1,14867)
        340          7         40 -2.29676790E-04                    1_GWF-(1,26663) -3.98525077E-05                    1_GWF-(1,14867)
        341          7         41  2.92081809E-04                    1_GWF-(1,26666)  4.65378357E-05                    1_GWF-(1,14867)
        342          7         42  3.58157269E-04                    1_GWF-(1,26665)  2.20514483E-05                    1_GWF-(1,14782)
        343          7         43 -3.66553246E-04                    1_GWF-(1,26665)  9.89690397E-06                    1_GWF-(1,14869)
        344          7         44  2.67362859E-04                    1_GWF-(1,26622)  3.20660815E-05                    1_GWF-(1,14867)
        345          7         45  2.18516231E-04                    1_GWF-(1,26666) -3.88320532E-05                    1_GWF-(1,14867)
        346          7         46  2.03168278E-04                    1_GWF-(1,26665)  4.97929121E-05                    1_GWF-(1,14867)
        347          7         47  2.25777713E-04                    1_GWF-(1,26218) -4.43238190E-05                    1_GWF-(1,14867)
        348          7         48  2.52503938E-04                    1_GWF-(1,26217)  4.60370039E-05                    1_GWF-(1,14867)
        349          7         49  1.87707340E-04                    1_GWF-(1,26218) -3.56957436E-05                    1_GWF-(1,14867)
        350          7         50  2.90529724E-04                    1_GWF-(1,11460)  4.57958782E-05                    1_GWF-(1,14867)
        351          8          1 -2.91898485E-04                    1_GWF-(1,11460) -3.38336365E-05                    1_GWF-(1,14867)
        352          8          2 -1.57596638E-04                    1_GWF-(1,26218)  4.02047817E-05                    1_GWF-(1,14867)
        353          8          3 -2.06349967E-04                    1_GWF-(1,26217) -3.59404642E-05                    1_GWF-(1,14867)
        354          8          4 -1.91372087E-04                    1_GWF-(1,26218)  3.83033674E-05                    1_GWF-(1,14867)
        355          8          5 -1.58613011E-04                    1_GWF-(1,26420) -2.79651782E-05                    1_GWF-(1,14867)
        356          8          6 -1.47227434E-04                    1_GWF-(1,26487)  2.05792572E-05                    1_GWF-(1,14867)
        357          8          7 -1.76159746E-04                    1_GWF-(1,26622)  4.79389600E-06                    1_GWF-(1,14869)
        358          8          8 -2.05962351E-04                    1_GWF-(1,26623)  1.38295431E-05                    1_GWF-(1,14782)
        359          8          9 -2.31594145E-04                    1_GWF-(1,26622)  2.21477700E-05                    1_GWF-(1,14867)
        360          8         10  1.81838775E-04                    1_GWF-(1,26486) -1.16473484E-05                    1_GWF-(1,14867)
        361          8         11  1.29987951E-04                    1_GWF-(1,26588)  4.53554272E-06                    1_GWF-(1,14868)
        362          8         12  1.51965540E-04                    1_GWF-(1,26543)  9.25004818E-06                    1_GWF-(1,14867)
        363          8         13  1.41115449E-04                    1_GWF-(1,26588) -1.05664070E-05                    1_GWF-(1,14867)
        364          8         14 -9.95442354E-05                    1_GWF-(1,26665)  1.19376288E-05                    1_GWF-(1,14867)
        365          8         15  8.31866132E-05                    1_GWF-(1,26674)  6.85857457E-06                    1_GWF-(1,14782)
        366          8         16  8.63373050E-05                    1_GWF-(1,26666)  7.76475465E-06                    1_GWF-(1,14868)
        367          8         17  6.63660564E-05                    1_GWF-(1,24679)  6.30620260E-06                    1_GWF-(1,14869)
        368          8         18  6.05484169E-05                    1_GWF-(1,24671)  8.85700061E-06                    1_GWF-(1,14868)
        369          8         19  5.84890522E-05                    1_GWF-(1,24661)  9.75584813E-06                    1_GWF-(1,14867)
        370          8         20  6.45025636E-05                    1_GWF-(1,24664)  1.32222489E-05                    1_GWF-(1,14868)
        371          8         21 -7.40811989E-05                    1_GWF-(1,26622)  1.35642751E-05                    1_GWF-(1,14867)
        372          8         22 -9.23664685E-05                    1_GWF-(1,26486)  9.48357322E-06                    1_GWF-(1,14868)
        373          8         23 -8.27639676E-05                    1_GWF-(1,26487)  2.72005450E-06                    1_GWF-(1,10869)
        374          8         24 -7.14010851E-05                    1_GWF-(1,26649)  9.23796147E-06                    1_GWF-(1,14867)
        375          8         25 -6.80562437E-05                    1_GWF-(1,26218)  1.23494144E-05                    1_GWF-(1,14868)
        376          8         26 -6.37834186E-05                    1_GWF-(1,26420) -1.41866807E-05                    1_GWF-(1,14868)
        377          8         27 -7.16020159E-05                    1_GWF-(1,26421)  1.77857042E-05                    1_GWF-(1,14868)
        378          8         28 -7.89014943E-05                    1_GWF-(1,26420) -1.34211183E-05                    1_GWF-(1,14868)
        379          8         29  7.67776571E-05                    1_GWF-(1,26420)  7.62254175E-06                    1_GWF-(1,14868)
        380          8         30 -7.94941570E-05                    1_GWF-(1,26588) -6.29104363E-06                    1_GWF-(1,14867)
        381          8         31 -7.92083230E-05                    1_GWF-(1,26589)  1.03997808E-05                    1_GWF-(1,14869)
        382          8         32  7.01813208E-05                    1_GWF-(1,26487)  1.72822168E-05                    1_GWF-(1,14868)
        383          8         33  5.76048294E-05                    1_GWF-(1,26588)  1.34102282E-05                    1_GWF-(1,14869)
        384          8         34  5.06788893E-05                    1_GWF-(1,26350)  1.52251901E-05                    1_GWF-(1,14868)
        385          8         35  5.00072577E-05                    1_GWF-(1,26422) -9.62365309E-06                    1_GWF-(1,14868)
        386          8         36 -5.26688558E-05                    1_GWF-(1,26422)  9.35528864E-06                    1_GWF-(1,14868)
        387          8         37 -7.35806583E-05                    1_GWF-(1,26350)  6.82387703E-06                    1_GWF-(1,14782)
        388          8         38 -6.64621787E-05                    1_GWF-(1,26422)  9.37832541E-06                    1_GWF-(1,14867)
        389          8         39 -4.07460732E-05                    1_GWF-(1,26350)  6.95325628E-06                    1_GWF-(1,14782)
        390          8         40 -3.73702743E-05                    1_GWF-(1,26486)  6.94733954E-06                    1_GWF-(1,14867)
        391          8         41 -3.12839538E-05                    1_GWF-(1,26350)  1.01133111E-05                    1_GWF-(1,14868)
        392          8         42 -2.51746174E-05                    1_GWF-(1,26648) -1.08656445E-05                    1_GWF-(1,14868)
        393          8         43  3.12963530E-05                    1_GWF-(1,26422)  1.41313466E-05                    1_GWF-(1,14868)
        394          8         44  2.97083744E-05                    1_GWF-(1,26350) -1.06785772E-05                    1_GWF-(1,14868)
        395          8         45  3.41225063E-05                    1_GWF-(1,26486)  7.44166710E-06                    1_GWF-(1,14868)
        396          8         46  3.56516753E-05                    1_GWF-(1,26487) -2.11376810E-06                    1_GWF-(1,14867)
        397          8         47  3.64456707E-05                    1_GWF-(1,26622) -9.08501135E-06                    1_GWF-(1,14868)
        398          8         48  3.11717174E-05                    1_GWF-(1,26588)  1.19265762E-05                    1_GWF-(1,14868)
        399          8         49  2.85147410E-05                    1_GWF-(1,26589) -1.24074102E-05                    1_GWF-(1,14868)
        400          8         50  2.02029217E-05                    1_GWF-(1,26623)  1.13933900E-05                    1_GWF-(1,14868)
        401          9          1 -1.84270251E-05                    1_GWF-(1,26218) -1.81300687E-05                    1_GWF-(1,14868)
        402          9          2 -2.17525820E-05                    1_GWF-(1,26589)  1.29159553E-05                    1_GWF-(1,14868)
        403          9          3 -2.26825717E-05                    1_GWF-(1,26588) -8.02441882E-06                    1_GWF-(1,14868)
        404          9          4 -3.01226130E-05                    1_GWF-(1,26622)  2.54801188E-06                    1_GWF-(1,14868)
        405          9          5 -3.21019294E-05                    1_GWF-(1,26487)  4.31748865E-06                    1_GWF-(1,14868)
        406          9          6 -3.36478361E-05                    1_GWF-(1,26486) -7.01919570E-06                    1_GWF-(1,14868)
        407          9          7  1.98791659E-05                    1_GWF-(1,26486)  1.06828280E-05                    1_GWF-(1,14868)
        408          9          8 -2.55198188E-05                    1_GWF-(1,26422) -9.59080706E-06                    1_GWF-(1,14868)
        409          9          9 -1.80595505E-05                    1_GWF-(1,26350)  9.21501803E-06                    1_GWF-(1,14868)
        410          9         10  1.75796555E-05                    1_GWF-(1,26350)  5.68125427E-06                    1_GWF-(1,14869)
        411          9         11  2.14514462E-05                    1_GWF-(1,26486)  4.54716401E-06                    1_GWF-(1,14868)
        412          9         12  2.28832616E-05                    1_GWF-(1,26350)  5.89968078E-06                    1_GWF-(1,14867)
        413          9         13  4.18493879E-05                    1_GWF-(1,26422)  4.39014887E-06                    1_GWF-(1,14782)
        414          9         14  4.70546859E-05                    1_GWF-(1,26350)  4.88873765E-06                    1_GWF-(1,14868)
        415          9         15  3.29373372E-05                    1_GWF-(1,26422) -4.27148639E-06                    1_GWF-(1,14868)
        416          9         16  2.84846485E-05                    1_GWF-(1,26420)  4.62666737E-06                    1_GWF-(1,14868)
        417          9         17 -3.08339169E-05                    1_GWF-(1,26486)  5.10385370E-06                    1_GWF-(1,14867)
        418          9         18 -3.42595531E-05                    1_GWF-(1,26487)  3.47259564E-06                    1_GWF-(1,14782)
        419          9         19 -3.91610216E-05                    1_GWF-(1,26422)  7.03024556E-06                    1_GWF-(1,14868)
        420          9         20 -3.81374474E-05                    1_GWF-(1,26350) -6.63652382E-06                    1_GWF-(1,14868)
        421          9         21  3.32166199E-05                    1_GWF-(1,26622)  6.21859274E-06                    1_GWF-(1,14868)
        422          9         22  2.39333253E-05                    1_GWF-(1,26649)  4.45756111E-06                    1_GWF-(1,14867)
        423          9         23  3.35069325E-05                    1_GWF-(1,26665) -2.98176332E-06                    1_GWF-(1,14867)
        424          9         24  2.89489671E-05                    1_GWF-(1,26663)  3.77148264E-06                    1_GWF-(1,14868)
        425          9         25  2.73828214E-05                    1_GWF-(1,26422) -4.87175945E-06                    1_GWF-(1,14868)
        426          9         26  2.70364141E-05                    1_GWF-(1,26350)  6.43991621E-06                    1_GWF-(1,14868)
        427          9         27  1.81269005E-05                    1_GWF-(1,26422) -5.71384072E-06                    1_GWF-(1,14868)
        428          9         28 -1.54727734E-05                    1_GWF-(1,26588)  5.89498458E-06                    1_GWF-(1,14868)
        429          9         29  2.14945416E-05                    1_GWF-(1,26588)  4.40516885E-06                    1_GWF-(1,14867)
        430          9         30  2.38303347E-05                    1_GWF-(1,26589)  2.34693835E-06                    1_GWF-(1,14782)
        431          9         31  2.93940225E-05                    1_GWF-(1,26588)  1.47161252E-06                    1_GWF-(1,14868)
        432          9         32  2.69157452E-05                    1_GWF-(1,26665) -3.11979265E-06                    1_GWF-(1,14868)
        433          9         33 -1.79422461E-05                    1_GWF-(1,26421)  4.23983464E-06                    1_GWF-(1,14868)
        434          9         34 -1.24739668E-05                    1_GWF-(1,26420)  3.91928538E-06                    1_GWF-(1,14867)
        435          9         35 -1.85043168E-05                    1_GWF-(1,26665)  3.56420110E-06                    1_GWF-(1,14868)
        436          9         36  1.63044601E-05                    1_GWF-(1,26218)  2.31320454E-06                    1_GWF-(1,14867)
        437          9         37 -1.22794081E-05                    1_GWF-(1,26543)  2.25469913E-06                    1_GWF-(1,14868)
        438          9         38 -1.71387832E-05                    1_GWF-(1,26588)  1.20946478E-06                    1_GWF-(1,14869)
        439          9         39 -1.93731079E-05                    1_GWF-(1,26589)  1.06884328E-06                    1_GWF-(1,14867)
        440          9         40 -2.18762760E-05                    1_GWF-(1,26588)  1.24370422E-06                    1_GWF-(1,14782)
        441          9         41 -2.29647440E-05                    1_GWF-(1,26486)  1.19095400E-06                    1_GWF-(1,14869)
        442          9         42  2.09062106E-05                    1_GWF-(1,26622)  1.46421096E-06                    1_GWF-(1,14868)
        443          9         43  1.71065532E-05                    1_GWF-(1,26623)  1.31450437E-06                    1_GWF-(1,14782)
        444          9         44 -1.26545453E-05                    1_GWF-(1,26218)  2.37637377E-06                    1_GWF-(1,14867)
        445          9         45  1.19152581E-05                    1_GWF-(1,26218) -2.35715748E-06                    1_GWF-(1,14867)
        446          9         46  1.35982149E-05                    1_GWF-(1,26422)  3.27762228E-06                    1_GWF-(1,14867)
        447          9         47  1.48743367E-05                    1_GWF-(1,26218) -2.93623064E-06                    1_GWF-(1,14867)
        448          9         48  1.70539715E-05                    1_GWF-(1,26217)  3.24635558E-06                    1_GWF-(1,14867)
        449          9         49  1.34988663E-05                    1_GWF-(1,26218) -2.54081163E-06                    1_GWF-(1,14867)
        450          9         50  1.49054431E-05                    1_GWF-(1,11460)  3.07959498E-06                    1_GWF-(1,14867)
        451         10          1 -1.49632764E-05                    1_GWF-(1,11460) -2.54321960E-06                    1_GWF-(1,14867)
        452         10          2 -1.09323228E-05                    1_GWF-(1,26218)  2.43864954E-06                    1_GWF-(1,14867)
        453         10          3 -1.14931983E-05                    1_GWF-(1,26217)  8.20852549E-07                    1_GWF-(1,14782)
        454         10          4 -1.26006802E-05                    1_GWF-(1,26420)  1.07540209E-06                    1_GWF-(1,14782)
        455         10          5 -1.46493000E-05                    1_GWF-(1,26487)  2.49821126E-06                    1_GWF-(1,14867)
        456         10          6 -1.23110670E-05                    1_GWF-(1,26420) -2.19205512E-06                    1_GWF-(1,14867)
        457         10          7 -7.91168047E-06                    1_GWF-(1,26487)  2.41301130E-06                    1_GWF-(1,14867)
        458         10          8  1.02247959E-05                    1_GWF-(1,26218) -1.89556970E-06                    1_GWF-(1,14867)
        459         10          9  1.02400620E-05                    1_GWF-(1,26217)  1.62922952E-06                    1_GWF-(1,14867)
        460         10         10  7.81385735E-06                    1_GWF-(1,26218) -7.71321282E-07                    1_GWF-(1,14867)
        461         10         11  5.23807042E-06                    1_GWF-(1,26487)  4.51482984E-07                    1_GWF-(1,14868)
        462         10         12 -6.62702720E-06                    1_GWF-(1,26665)  4.00284223E-07                    1_GWF-(1,14869)
        463         10         13  8.55662253E-06                    1_GWF-(1,26665)  5.12642104E-07                    1_GWF-(1,14782)
        464         10         14 -8.49526166E-06                    1_GWF-(1,26665)  6.09742625E-07                    1_GWF-(1,14867)
        465         10         15  7.69828552E-06                    1_GWF-(1,26649)  2.59094217E-07                    1_GWF-(1,14782)
        466         10         16  6.54765738E-06                    1_GWF-(1,26622)  5.42369010E-07                    1_GWF-(1,14868)
        467         10         17 -7.65300253E-06                    1_GWF-(1,26622)  5.13029847E-07                    1_GWF-(1,14867)
        468         10         18 -7.51426801E-06                    1_GWF-(1,26623)  3.79135445E-07                    1_GWF-(1,14782)
        469         10         19 -6.06727357E-06                    1_GWF-(1,26665)  1.95623759E-07                    1_GWF-(1,14867)
        470         10         20 -6.84465846E-06                    1_GWF-(1,26588)  3.36795536E-07                    1_GWF-(1,14869)
        471         10         21 -7.31167818E-06                    1_GWF-(1,26543)  5.52782219E-07                    1_GWF-(1,14868)
        472         10         22 -7.41190322E-06                    1_GWF-(1,26588)  6.60755885E-07                    1_GWF-(1,14867)
        473         10         23 -6.46403330E-06                    1_GWF-(1,26543)  4.40130645E-07                    1_GWF-(1,14868)
        474         10         24 -5.67724623E-06                    1_GWF-(1,26588)  1.95739561E-07                    1_GWF-(1,11138)
        475         10         25 -4.22437742E-06                    1_GWF-(1,26422)  3.47542235E-07                    1_GWF-(1,14867)
        476         10         26 -5.04425285E-06                    1_GWF-(1,26218)  5.60652584E-07                    1_GWF-(1,14868)
        477         10         27 -3.77581595E-06                    1_GWF-(1,26422)  8.63243388E-07                    1_GWF-(1,14867)
        478         10         28  3.54731312E-06                    1_GWF-(1,26589)  9.53381893E-07                    1_GWF-(1,14868)
        479         10         29  2.77501908E-06                    1_GWF-(1,26588)  9.93157156E-07                    1_GWF-(1,14867)
        480         10         30  3.48096511E-06                    1_GWF-(1,26420)  1.16401169E-06                    1_GWF-(1,14868)
        481         10         31  4.57483145E-06                    1_GWF-(1,26486) -1.09024882E-06                    1_GWF-(1,14868)
        482         10         32  4.36123537E-06                    1_GWF-(1,26350)  1.34859325E-06                    1_GWF-(1,14868)
        483         10         33  4.25046351E-06                    1_GWF-(1,26422)  9.84122455E-07                    1_GWF-(1,14869)
        484         10         34  3.43504262E-06                    1_GWF-(1,26350)  1.06155346E-06                    1_GWF-(1,14868)
        485         10         35  3.04945139E-06                    1_GWF-(1,26486) -5.80988521E-07                    1_GWF-(1,14868)
        486         10         36  3.01603445E-06                    1_GWF-(1,26544)  4.24584672E-07                    1_GWF-(1,14867)
        487         10         37  3.01731326E-06                    1_GWF-(1,26486)  4.11820413E-07                    1_GWF-(1,14868)
        488         10         38 -3.22446679E-06                    1_GWF-(1,26350) -5.40585697E-07                    1_GWF-(1,14868)
        489         10         39 -3.05260629E-06                    1_GWF-(1,26422)  6.52806022E-07                    1_GWF-(1,14868)
        490         10         40  2.51974889E-06                    1_GWF-(1,26422)  3.69485376E-07                    1_GWF-(1,14782)
        491         10         41 -2.99701395E-06                    1_GWF-(1,26422)  4.91136397E-07                    1_GWF-(1,14867)
        492         10         42 -2.10976175E-06                    1_GWF-(1,26350)  3.84456621E-07                    1_GWF-(1,14782)
        493         10         43  2.66207983E-06                    1_GWF-(1,26350)  3.85019125E-07                    1_GWF-(1,14867)
        494         10         44  2.84276056E-06                    1_GWF-(1,26422)  5.86724869E-07                    1_GWF-(1,14868)
        495         10         45 -1.85650617E-06                    1_GWF-(1,26649) -4.09583618E-07                    1_GWF-(1,14868)
        496         10         46  2.04755454E-06                    1_GWF-(1,26543)  2.36832937E-07                    1_GWF-(1,14868)
        497         10         47  2.47516117E-06                    1_GWF-(1,26622) -2.76958817E-07                    1_GWF-(1,14867)
        498         10         48  2.87186458E-06                    1_GWF-(1,26649) -4.06334766E-07                    1_GWF-(1,14868)
        499         10         49 -2.12354938E-06                    1_GWF-(1,26420)  5.19866924E-07                    1_GWF-(1,14868)
        500         10         50 -2.11795330E-06                    1_GWF-(1,26487) -4.99387522E-07                    1_GWF-(1,14868)
        501         11          1  2.83928015E-06                    1_GWF-(1,26487)  8.14376777E-07                    1_GWF-(1,14868)
        502         11          2  3.33203981E-06                    1_GWF-(1,26420) -1.19914439E-07                    1_GWF-(1,14868)
        503         11          3  2.23194335E-06                    1_GWF-(1,26487) -4.71167560E-07                    1_GWF-(1,14868)
        504         11          4 -1.84765014E-06                    1_GWF-(1,26487)  6.94603171E-07                    1_GWF-(1,14868)
        505         11          5 -2.16054179E-06                    1_GWF-(1,26486) -7.73656468E-07                    1_GWF-(1,14868)
        506         11          6 -1.82097419E-06                    1_GWF-(1,26544)  8.11574014E-07                    1_GWF-(1,14868)
        507         11          7 -1.85505864E-06                    1_GWF-(1,26543)  2.50419954E-07                    1_GWF-(1,14869)
        508         11          8  2.24658967E-06                    1_GWF-(1,26543) -2.34388118E-07                    1_GWF-(1,14868)
        509         11          9  2.88346036E-06                    1_GWF-(1,26588)  7.26119141E-07                    1_GWF-(1,14868)
        510         11         10  1.93227520E-06                    1_GWF-(1,26543) -6.12969296E-07                    1_GWF-(1,14868)
        511         11         11  1.48975929E-06                    1_GWF-(1,26588)  5.66833125E-07                    1_GWF-(1,14868)
        512         11         12  1.35013076E-06                    1_GWF-(1,26544)  2.72048557E-07                    1_GWF-(1,14869)
        513         11         13 -2.18114408E-06                    1_GWF-(1,26665)  2.48332831E-07                    1_GWF-(1,14782)
        514         11         14  2.28352433E-06                    1_GWF-(1,26350)  3.59026736E-07                    1_GWF-(1,14867)
        515         11         15  2.17335252E-06                    1_GWF-(1,26666) -3.15370738E-07                    1_GWF-(1,14868)
        516         11         16  2.04032592E-06                    1_GWF-(1,26665)  4.67736557E-07                    1_GWF-(1,14868)
        517         11         17 -1.82075835E-06                    1_GWF-(1,26665)  3.80355205E-07                    1_GWF-(1,14869)
        518         11         18 -1.69966158E-06                    1_GWF-(1,26623)  3.86753749E-07                    1_GWF-(1,14868)
        519         11         19 -2.61359698E-06                    1_GWF-(1,26422)  4.47548525E-07                    1_GWF-(1,14867)
        520         11         20 -2.99780580E-06                    1_GWF-(1,26350) -3.52969365E-07                    1_GWF-(1,14867)
        521         11         21 -2.24333202E-06                    1_GWF-(1,26422)  2.67448748E-07                    1_GWF-(1,14867)
        522         11         22  2.14702742E-06                    1_GWF-(1,26622) -2.21969421E-07                    1_GWF-(1,14868)
        523         11         23  2.23788630E-06                    1_GWF-(1,26649)  1.94815375E-07                    1_GWF-(1,14868)
        524         11         24 -1.83883550E-06                    1_GWF-(1,26649)  2.79226568E-07                    1_GWF-(1,14867)
        525         11         25  2.13815154E-06                    1_GWF-(1,26422)  1.69560816E-07                    1_GWF-(1,14782)
        526         11         26  2.39620938E-06                    1_GWF-(1,26350)  3.30911702E-07                    1_GWF-(1,14868)
        527         11         27  1.91159132E-06                    1_GWF-(1,26422) -3.60104232E-07                    1_GWF-(1,14868)
        528         11         28  1.58048517E-06                    1_GWF-(1,26420)  4.27059845E-07                    1_GWF-(1,14868)
        529         11         29  1.37833034E-06                    1_GWF-(1,26487) -2.70215375E-07                    1_GWF-(1,14868)
        530         11         30 -1.72691433E-06                    1_GWF-(1,26487)  1.21215729E-07                    1_GWF-(1,14782)
        531         11         31 -2.14739165E-06                    1_GWF-(1,26486)  2.40538752E-07                    1_GWF-(1,14868)
        532         11         32  1.58130993E-06                    1_GWF-(1,26486) -3.15915319E-07                    1_GWF-(1,14868)
        533         11         33 -1.24325675E-06                    1_GWF-(1,26486)  3.62792946E-07                    1_GWF-(1,14868)
        534         11         34 -9.27836056E-07                    1_GWF-(1,26544) -2.86244210E-07                    1_GWF-(1,14868)
        535         12          1 -9.49576203E-07                    1_GWF-(1,26486)  3.28709480E-07                    1_GWF-(1,14868)
 --------------------------------------------------------------------------------------------------------------------------------------


 UBDSV1 SAVING     FLOW-JA-FACE ON UNIT   1020 AT TIME STEP      1, STRESS PERIOD      1
 UBDSV06 SAVING       DATA-SPDIS IN MODEL ML               PACKAGE NPF             CONNECTED TO MODEL ML               PACKAGE NPF              ON UNIT   1020 AT TIME STEP      1, STRESS PERIOD      1
 UBDSV06 SAVING              WEL IN MODEL ML               PACKAGE ML              CONNECTED TO MODEL ML               PACKAGE WEL_0            ON UNIT   1020 AT TIME STEP      1, STRESS PERIOD      1
 UBDSV06 SAVING              DRN IN MODEL ML               PACKAGE ML              CONNECTED TO MODEL ML               PACKAGE DRN_0            ON UNIT   1020 AT TIME STEP      1, STRESS PERIOD      1
 UBDSV06 SAVING              RIV IN MODEL ML               PACKAGE ML              CONNECTED TO MODEL ML               PACKAGE RIV_0            ON UNIT   1020 AT TIME STEP      1, STRESS PERIOD      1
 UBDSV06 SAVING              GHB IN MODEL ML               PACKAGE ML              CONNECTED TO MODEL ML               PACKAGE GHB_0            ON UNIT   1020 AT TIME STEP      1, STRESS PERIOD      1
 UBDSV06 SAVING              RCH IN MODEL ML               PACKAGE ML              CONNECTED TO MODEL ML               PACKAGE RCHA_0           ON UNIT   1020 AT TIME STEP      1, STRESS PERIOD      1

 HEAD WILL BE SAVED ON UNIT 1021 AT END OF TIME STEP    1, STRESS PERIOD    1


  VOLUME BUDGET FOR ENTIRE MODEL AT END OF TIME STEP    1, STRESS PERIOD   1
  ---------------------------------------------------------------------------------------------------

     CUMULATIVE VOLUME      L**3       RATES FOR THIS TIME STEP      L**3/T          PACKAGE NAME    
     ------------------                 ------------------------                     ----------------

           IN:                                      IN:
           ---                                      ---
                 WEL =           0.0000                   WEL =           0.0000     WEL_0           
                 DRN =           0.0000                   DRN =           0.0000     DRN_0           
                 RIV =           8.8947                   RIV =           0.8895     RIV_0           
                 GHB =          25.7438                   GHB =           2.5744     GHB_0           
                 RCH =           4.8462                   RCH =           0.4846     RCHA_0          

            TOTAL IN =          39.4846              TOTAL IN =           3.9485

          OUT:                                     OUT:
          ----                                     ----
                 WEL =           0.8421                   WEL =       8.4206E-02     WEL_0           
                 DRN =           2.2200                   DRN =           0.2220     DRN_0           
                 RIV =          36.2213                   RIV =           3.6221     RIV_0           
                 GHB =           0.2013                   GHB =       2.0126E-02     GHB_0           
                 RCH =           0.0000                   RCH =           0.0000     RCHA_0          

           TOTAL OUT =          39.4847             TOTAL OUT =           3.9485

            IN - OUT =      -1.8117E-05              IN - OUT =      -1.8117E-06

 PERCENT DISCREPANCY =          -0.00     PERCENT DISCREPANCY =          -0.00




         TIME SUMMARY AT END OF TIME STEP    1 IN STRESS PERIOD    1
                    SECONDS     MINUTES      HOURS       DAYS        YEARS
                    -----------------------------------------------------------
   TIME STEP LENGTH  10.000     0.16667     2.77778E-03 1.15741E-04 3.16881E-07
 STRESS PERIOD TIME  10.000     0.16667     2.77778E-03 1.15741E-04 3.16881E-07
         TOTAL TIME  10.000     0.16667     2.77778E-03 1.15741E-04 3.16881E-07


end timestep

