                                   MODFLOW 6
                U.S. GEOLOGICAL SURVEY MODULAR HYDROLOGIC MODEL
                          GROUNDWATER FLOW MODEL (GWF)
                            VERSION 6.2.2 07/30/2021

   MODFLOW 6 compiled Jul 31 2021 14:22:53 with IFORT compiler (ver. 19.10.3)

This software has been approved for release by the U.S. Geological 
Survey (USGS). Although the software has been subjected to rigorous 
review, the USGS reserves the right to update the software as needed 
pursuant to further analysis and review. No warranty, expressed or 
implied, is made by the USGS or the U.S. Government as to the 
functionality of the software and related material nor shall the 
fact of release constitute any such warranty. Furthermore, the 
software is released on condition that neither the USGS nor the U.S. 
Government shall be held liable for any damages resulting from its 
authorized or unauthorized use. Also refer to the USGS Water 
Resources Software User Rights Notice for complete use, copyright, 
and distribution information.


System command used to initiate simulation:
mf6

MODFLOW was compiled using uniform precision.

Real Variables
  KIND: 8
  TINY (smallest non-zero value):    2.225074-308
  HUGE (largest value):    1.797693+308
  PRECISION: 15
  BIT SIZE: 64

Integer Variables
  KIND: 4
  HUGE (largest value): 2147483647
  BIT SIZE: 32

Long Integer Variables
  KIND: 8
  HUGE (largest value): 9223372036854775807
  BIT SIZE: 64

Logical Variables
  KIND: 4
  BIT SIZE: 32
 

 OPENED ./ml.disv
 FILE TYPE:DISV6                  UNIT 1005   STATUS:OLD                 
 FORMAT:FORMATTED              ACCESS:SEQUENTIAL          
 ACTION:READ                


 OPENED ./ml.ic
 FILE TYPE:IC6                    UNIT 1006   STATUS:OLD                 
 FORMAT:FORMATTED              ACCESS:SEQUENTIAL          
 ACTION:READ                


 OPENED ./ml.npf
 FILE TYPE:NPF6                   UNIT 1007   STATUS:OLD                 
 FORMAT:FORMATTED              ACCESS:SEQUENTIAL          
 ACTION:READ                


 OPENED ./ml.ghb
 FILE TYPE:GHB6                   UNIT 1008   STATUS:OLD                 
 FORMAT:FORMATTED              ACCESS:SEQUENTIAL          
 ACTION:READ                


 OPENED ./ml.rcha
 FILE TYPE:RCH6                   UNIT 1009   STATUS:OLD                 
 FORMAT:FORMATTED              ACCESS:SEQUENTIAL          
 ACTION:READ                


 OPENED ./ml.obs
 FILE TYPE:OBS6                   UNIT 1010   STATUS:OLD                 
 FORMAT:FORMATTED              ACCESS:SEQUENTIAL          
 ACTION:READ                


 OPENED ./ml.oc
 FILE TYPE:OC6                    UNIT 1011   STATUS:OLD                 
 FORMAT:FORMATTED              ACCESS:SEQUENTIAL          
 ACTION:READ                


 OPENED ml.wel
 FILE TYPE:WEL6                   UNIT 1012   STATUS:OLD                 
 FORMAT:FORMATTED              ACCESS:SEQUENTIAL          
 ACTION:READ                


 OPENED ml.drn
 FILE TYPE:DRN6                   UNIT 1013   STATUS:OLD                 
 FORMAT:FORMATTED              ACCESS:SEQUENTIAL          
 ACTION:READ                


 OPENED ml.riv
 FILE TYPE:RIV6                   UNIT 1014   STATUS:OLD                 
 FORMAT:FORMATTED              ACCESS:SEQUENTIAL          
 ACTION:READ                


 DISV -- VERTEX GRID DISCRETIZATION PACKAGE, VERSION 1 : 12/23/2015 - INPUT READ FROM UNIT 1005


 # File generated by Flopy version 3.3.5 on 05/30/2022 at 17:41:15.

 PROCESSING DISCRETIZATION OPTIONS
    MODEL LENGTH UNIT IS METERS
    XORIGIN SPECIFIED AS     405575.681000000    
    YORIGIN SPECIFIED AS     6423306.54000000    
 END OF DISCRETIZATION OPTIONS

 PROCESSING DISCRETIZATION DIMENSIONS
   NLAY = 1
   NCPL = 26674
   NVERT = 27090
 END OF DISCRETIZATION DIMENSIONS

 PROCESSING GRIDDATA
 END PROCESSING GRIDDATA

 PROCESSING VERTICES
   SUCCESSFULLY READ 27090 (X,Y) COORDINATES
   MINIMUM X COORDINATE =     405575.681000000    
   MAXIMUM X COORDINATE =     413975.681000000    
   MINIMUM Y COORDINATE =     6423306.54000000    
   MAXIMUM Y COORDINATE =     6432506.54000000    
 END PROCESSING VERTICES

 PROCESSING CELL2D
   SUCCESSFULLY READ 26674 CELL2D INFORMATION ENTRIES
   MINIMUM X CELL CENTER =     405675.681000000    
   MAXIMUM X CELL CENTER =     413875.681000000    
   MINIMUM Y CELL CENTER =     6423406.54000000    
   MAXIMUM Y CELL CENTER =     6432406.54000000    
   MAXIMUM NUMBER OF CELL2D VERTICES IS 6 FOR CELL 208
 END PROCESSING VERTICES

 NPF -- NODE PROPERTY FLOW PACKAGE, VERSION 1, 3/30/2015 INPUT READ FROM UNIT 1007


 # File generated by Flopy version 3.3.5 on 05/30/2022 at 17:41:18.
 PROCESSING NPF OPTIONS
    CELL-BY-CELL FLOW INFORMATION WILL BE SAVED TO BINARY FILE WHENEVER ICBCFL IS NOT ZERO.
    SPECIFIC DISCHARGE WILL BE CALCULATED AT CELL CENTERS AND WRITTEN TO DATA-SPDIS IN BUDGET FILE WHEN REQUESTED.
 END OF NPF OPTIONS

 WEL   -- WEL PACKAGE, VERSION 8, 2/22/2014 INPUT READ FROM UNIT 1012
 # File generated by Flopy version 3.3.5 on 05/30/2022 at 17:41:18.

 PROCESSING WEL OPTIONS
    WEL BOUNDARIES HAVE NAMES IN LAST COLUMN.
    FLOWS WILL BE SAVED TO BUDGET FILE SPECIFIED IN OUTPUT CONTROL
 END OF WEL OPTIONS

 PROCESSING WEL DIMENSIONS
    MAXBOUND =       9
 END OF WEL DIMENSIONS

 DRN   -- DRN PACKAGE, VERSION 8, 2/22/2014 INPUT READ FROM UNIT 1013
 # File generated by Flopy version 3.3.5 on 05/30/2022 at 17:41:18.

 PROCESSING DRN OPTIONS
    DRN BOUNDARIES HAVE NAMES IN LAST COLUMN.
    FLOWS WILL BE SAVED TO BUDGET FILE SPECIFIED IN OUTPUT CONTROL

 OPENED ml.drn.obs
 FILE TYPE:OBS   UNIT 1016   STATUS:OLD                 
 FORMAT:FORMATTED              ACCESS:SEQUENTIAL          
 ACTION:READ                

 END OF DRN OPTIONS

 PROCESSING DRN DIMENSIONS
    MAXBOUND =     133
 END OF DRN DIMENSIONS

 RIV   -- RIV PACKAGE, VERSION 8, 2/22/2014 INPUT READ FROM UNIT 1014
 # File generated by Flopy version 3.3.5 on 05/30/2022 at 17:41:18.

 PROCESSING RIV OPTIONS
    AUXILIARY RIV VARIABLE: FID             
    RIV BOUNDARIES HAVE NAMES IN LAST COLUMN.
    FLOWS WILL BE SAVED TO BUDGET FILE SPECIFIED IN OUTPUT CONTROL
 END OF RIV OPTIONS

 PROCESSING RIV DIMENSIONS
    MAXBOUND =     794
 END OF RIV DIMENSIONS

 GHB   -- GHB PACKAGE, VERSION 8, 2/22/2014 INPUT READ FROM UNIT 1008
 # File generated by Flopy version 3.3.5 on 05/30/2022 at 17:41:18.

 PROCESSING GHB OPTIONS
    GHB BOUNDARIES HAVE NAMES IN LAST COLUMN.
    FLOWS WILL BE SAVED TO BUDGET FILE SPECIFIED IN OUTPUT CONTROL
 END OF GHB OPTIONS

 PROCESSING GHB DIMENSIONS
    MAXBOUND =     153
 END OF GHB DIMENSIONS

 RCH   -- RCH PACKAGE, VERSION 8, 2/22/2014 INPUT READ FROM UNIT 1009
 # File generated by Flopy version 3.3.5 on 05/30/2022 at 17:41:18.

 PROCESSING RCH OPTIONS
    RECHARGE INPUT WILL BE READ AS ARRAY(S).
    FLOWS WILL BE SAVED TO BUDGET FILE SPECIFIED IN OUTPUT CONTROL
 END OF RCH OPTIONS

 IC -- INITIAL CONDITIONS PACKAGE, VERSION 8, 3/28/2015 INPUT READ FROM UNIT 1006
 # File generated by Flopy version 3.3.5 on 05/30/2022 at 17:41:18.
 PROCESSING GRIDDATA

     INITIAL HEAD =   15.00000    
 END PROCESSING GRIDDATA
 PROCESSING GRIDDATA

                ICELLTYPE = 0

 OPENED ../com_ext/k.txt
 FILE TYPE:OPEN/CLOSE   UNIT 1017   STATUS:OLD                 
 FORMAT:FORMATTED              ACCESS:SEQUENTIAL          
 ACTION:READ                

 K33 not provided.  Assuming K33 = K.
 K22 not provided.  Assuming K22 = K.
 END PROCESSING GRIDDATA

The observation utility is active for "ML"
 # File generated by Flopy version 3.3.5 on 05/30/2022 at 17:41:18.

Processing observation options:

Text output number of digits of precision set to: 10
The PRINT_INPUT option has been specified.


 OBSERVATIONS READ FROM FILE "ml.obs"
 ----------------------------------------------------------------------------------------------------------------------------------------------------------------------------------------------------------------------------
 NAME                                     TYPE                                       TIME         LOCATION DATA                              OUTPUT FILENAME                                                                 
 ----------------------------------------------------------------------------------------------------------------------------------------------------------------------------------------------------------------------------
 PRG                                      CONTINUOUS  HEAD                           ALL TIMES    "1 16523"                                  sim/hds.csv                                                                     
 P8                                       CONTINUOUS  HEAD                           ALL TIMES    "1 10323"                                  sim/hds.csv                                                                     
 P24                                      CONTINUOUS  HEAD                           ALL TIMES    "1 9594"                                   sim/hds.csv                                                                     
 P25                                      CONTINUOUS  HEAD                           ALL TIMES    "1 13966"                                  sim/hds.csv                                                                     
 P32                                      CONTINUOUS  HEAD                           ALL TIMES    "1 15787"                                  sim/hds.csv                                                                     
 P33                                      CONTINUOUS  HEAD                           ALL TIMES    "1 15825"                                  sim/hds.csv                                                                     
 PF                                       CONTINUOUS  HEAD                           ALL TIMES    "1 21048"                                  sim/hds.csv                                                                     
 PH                                       CONTINUOUS  HEAD                           ALL TIMES    "1 20781"                                  sim/hds.csv                                                                     
 PZHM1                                    CONTINUOUS  HEAD                           ALL TIMES    "1 14521"                                  sim/hds.csv                                                                     
 P26                                      CONTINUOUS  HEAD                           ALL TIMES    "1 13141"                                  sim/hds.csv                                                                     
 P27                                      CONTINUOUS  HEAD                           ALL TIMES    "1 8465"                                   sim/hds.csv                                                                     
 P28                                      CONTINUOUS  HEAD                           ALL TIMES    "1 8924"                                   sim/hds.csv                                                                     
 P29                                      CONTINUOUS  HEAD                           ALL TIMES    "1 4524"                                   sim/hds.csv                                                                     
 P30                                      CONTINUOUS  HEAD                           ALL TIMES    "1 5255"                                   sim/hds.csv                                                                     
 R20                                      CONTINUOUS  HEAD                           ALL TIMES    "1 10676"                                  sim/hds.csv                                                                     
 R21                                      CONTINUOUS  HEAD                           ALL TIMES    "1 10403"                                  sim/hds.csv                                                                     
 P34                                      CONTINUOUS  HEAD                           ALL TIMES    "1 15131"                                  sim/hds.csv                                                                     
 P37                                      CONTINUOUS  HEAD                           ALL TIMES    "1 15755"                                  sim/hds.csv                                                                     
 P38                                      CONTINUOUS  HEAD                           ALL TIMES    "1 15045"                                  sim/hds.csv                                                                     
 P39                                      CONTINUOUS  HEAD                           ALL TIMES    "1 9637"                                   sim/hds.csv                                                                     
 P40                                      CONTINUOUS  HEAD                           ALL TIMES    "1 9312"                                   sim/hds.csv                                                                     
 AP1                                      CONTINUOUS  HEAD                           ALL TIMES    "1 9702"                                   sim/hds.csv                                                                     
 RCK1                                     CONTINUOUS  HEAD                           ALL TIMES    "1 15900"                                  sim/hds.csv                                                                     
 RCK2                                     CONTINUOUS  HEAD                           ALL TIMES    "1 15199"                                  sim/hds.csv                                                                     
 P23                                      CONTINUOUS  HEAD                           ALL TIMES    "1 6409"                                   sim/hds.csv                                                                     
 ----------------------------------------------------------------------------------------------------------------------------------------------------------------------------------------------------------------------------


    BINARY GRID INFORMATION WILL BE WRITTEN TO:
      UNIT NUMBER: 1019
      FILE NAME: /srv/common/ptrack/case_study/pst/ml_10/./ml.disv.grb

 OPENED /srv/common/ptrack/case_study/pst/ml_10/./ml.disv.grb
 FILE TYPE:DATA(BINARY)   UNIT 1019   STATUS:REPLACE             
 FORMAT:UNFORMATTED            ACCESS:STREAM              
 ACTION:READWRITE           

      THE LAST TIME STEP WILL BE PRINTED
      THE LAST TIME STEP WILL BE PRINTED
 # File generated by Flopy version 3.3.5 on 05/30/2022 at 17:41:18.

 PROCESSING OC OPTIONS

    BUDGET INFORMATION WILL BE WRITTEN TO:
      UNIT NUMBER: 1020
      FILE NAME: ml.cbc

 OPENED ml.cbc
 FILE TYPE:DATA(BINARY)   UNIT 1020   STATUS:REPLACE             
 FORMAT:UNFORMATTED            ACCESS:STREAM              
 ACTION:READWRITE           

    HEAD INFORMATION WILL BE WRITTEN TO:
      UNIT NUMBER: 1021
      FILE NAME: ml.hds

 OPENED ml.hds
 FILE TYPE:DATA(BINARY)   UNIT 1021   STATUS:REPLACE             
 FORMAT:UNFORMATTED            ACCESS:STREAM              
 ACTION:READWRITE           

 END OF OC OPTIONS

The observation utility is active for "DRN_0"
 # File generated by Flopy version 3.3.5 on 05/30/2022 at 17:41:18.

Processing observation options:



start timestep kper="1" kstp="1" mode="normal"


 BEGIN READING OUTPUT CONTROL FOR STRESS PERIOD 1
      THE LAST TIME STEP WILL BE SAVED
      THE LAST TIME STEP WILL BE SAVED

 END READING OUTPUT CONTROL FOR STRESS PERIOD 1

 OPENED ext/wel_spd_1.txt
 FILE TYPE:OPEN/CLOSE   UNIT 1023   STATUS:OLD                 
 FORMAT:FORMATTED              ACCESS:SEQUENTIAL          
 ACTION:READ                


 OPENED ext/drn_spd_1.txt
 FILE TYPE:OPEN/CLOSE   UNIT 1024   STATUS:OLD                 
 FORMAT:FORMATTED              ACCESS:SEQUENTIAL          
 ACTION:READ                


 OPENED ext/riv_spd_1.txt
 FILE TYPE:OPEN/CLOSE   UNIT 1025   STATUS:OLD                 
 FORMAT:FORMATTED              ACCESS:SEQUENTIAL          
 ACTION:READ                


 OPENED ../com_ext/ghb_spd_1.txt
 FILE TYPE:OPEN/CLOSE   UNIT 1026   STATUS:OLD                 
 FORMAT:FORMATTED              ACCESS:SEQUENTIAL          
 ACTION:READ                


 OPENED ../com_ext/rech_spd_1.txt
 FILE TYPE:OPEN/CLOSE   UNIT 1027   STATUS:OLD                 
 FORMAT:FORMATTED              ACCESS:SEQUENTIAL          
 ACTION:READ                


 SLN_1 INNER ITERATION SUMMARY
 --------------------------------------------------------------------------------------------------------------------------------------
      TOTAL      OUTER      INNER                                                            MAXIMUM                                   
  ITERATION  ITERATION  ITERATION  MAXIMUM CHANGE      MAXIMUM CHANGE MODEL-(CELLID)        RESIDUAL    MAXIMUM RESIDUAL MODEL-(CELLID)
 --------------------------------------------------------------------------------------------------------------------------------------
          1          1          1       14.922053                    1_GWF-(1,26517)      0.58574073                    1_GWF-(1,11179)
          2          1          2       16.724829                    1_GWF-(1,26516)     -0.40771216                    1_GWF-(1,11179)
          3          1          3       20.976785                    1_GWF-(1,26563)     -0.33708962                    1_GWF-(1,11161)
          4          1          4       21.062250                    1_GWF-(1,26513)      0.33556530                    1_GWF-(1,11178)
          5          1          5       16.328758                    1_GWF-(1,26647)     -0.28041800                    1_GWF-(1,11208)
          6          1          6       20.173140                    1_GWF-(1,26649)     -0.30570719                    1_GWF-(1,11207)
          7          1          7       17.404781                    1_GWF-(1,26622)      0.24188042                    1_GWF-(1,11207)
          8          1          8       11.674595                    1_GWF-(1,26623)     -0.17685082                    1_GWF-(1,11207)
          9          1          9       10.729921                    1_GWF-(1,26589)      0.10886756                    1_GWF-(1,10957)
         10          1         10       9.9178126                    1_GWF-(1,26486)     -0.14305907                    1_GWF-(1,11158)
         11          1         11       9.3311263                    1_GWF-(1,26544)     -0.15515652                    1_GWF-(1,11207)
         12          1         12       7.8040883                    1_GWF-(1,26420)      0.11449713                    1_GWF-(1,11153)
         13          1         13       6.6272824                    1_GWF-(1,26422)  6.76982275E-02                    1_GWF-(1,11194)
         14          1         14      -6.2118089                    1_GWF-(1,26622)     -0.10041330                    1_GWF-(1,11153)
         15          1         15      -5.2439452                    1_GWF-(1,26623) -6.67891613E-02                    1_GWF-(1,11194)
         16          1         16      -4.3103262                    1_GWF-(1,26622)  8.50199013E-02                    1_GWF-(1,11180)
         17          1         17      -4.6327380                    1_GWF-(1,26588) -8.25939316E-02                    1_GWF-(1,11153)
         18          1         18      -5.6207162                    1_GWF-(1,26350) -8.49563718E-02                    1_GWF-(1,11194)
         19          1         19      -6.8145741                    1_GWF-(1,26588)  7.23581172E-02                    1_GWF-(1,11194)
         20          1         20      -5.8534226                    1_GWF-(1,26543) -4.81920047E-02                    1_GWF-(1,11155)
         21          1         21      -4.6779059                    1_GWF-(1,26487) -7.38428090E-02                    1_GWF-(1,11194)
         22          1         22      -5.3553580                    1_GWF-(1,26486)  5.44891747E-02                    1_GWF-(1,11200)
         23          1         23      -4.5538472                    1_GWF-(1,26487)  4.88523313E-02                    1_GWF-(1,11151)
         24          1         24      -4.2246248                    1_GWF-(1,26486) -4.51310680E-02                    1_GWF-(1,11194)
         25          1         25       3.8965421                    1_GWF-(1,26420) -4.72823792E-02                    1_GWF-(1,11109)
         26          1         26       4.3669682                    1_GWF-(1,26487)  4.76641818E-02                    1_GWF-(1,11109)
         27          1         27       4.0047434                    1_GWF-(1,26420)  3.95148012E-02                    1_GWF-(1,11108)
         28          1         28       2.3943683                    1_GWF-(1,26487) -3.94849547E-02                    1_GWF-(1,11195)
         29          1         29       2.1241672                    1_GWF-(1,26588)  4.50192167E-02                    1_GWF-(1,11109)
         30          1         30       2.8850795                    1_GWF-(1,26623)  4.68982134E-02                    1_GWF-(1,11110)
         31          1         31       2.5466035                    1_GWF-(1,26586) -4.14934461E-02                    1_GWF-(1,11150)
         32          1         32       2.1887430                    1_GWF-(1,26648) -3.40244735E-02                    1_GWF-(1,11065)
         33          1         33      -2.0361306                    1_GWF-(1,26422)  2.59690691E-02                    1_GWF-(1,11148)
         34          1         34       2.0199893                    1_GWF-(1,26665) -2.96097210E-02                    1_GWF-(1,11108)
         35          1         35      -1.8355048                    1_GWF-(1,26422) -2.99285820E-02                    1_GWF-(1,11158)
         36          1         36      -1.4776605                    1_GWF-(1,26350)  3.08403526E-02                    1_GWF-(1,11065)
         37          1         37       1.4360391                    1_GWF-(1,26350)  3.54738666E-02                    1_GWF-(1,11200)
         38          1         38       1.1970854                    1_GWF-(1,26422)  3.63553801E-02                    1_GWF-(1,11203)
         39          1         39      -1.3942192                    1_GWF-(1,26649)  3.54891287E-02                    1_GWF-(1,11200)
         40          1         40      -1.1544063                    1_GWF-(1,26648) -3.08377344E-02                    1_GWF-(1,11206)
         41          1         41     -0.93263425                    1_GWF-(1,26649) -2.37395203E-02                    1_GWF-(1,11196)
         42          1         42     -0.73052416                    1_GWF-(1,26648) -2.36019049E-02                    1_GWF-(1,11195)
         43          1         43     -0.70390205                    1_GWF-(1,26586)  2.67749168E-02                    1_GWF-(1,11195)
         44          1         44     -0.74569089                    1_GWF-(1,26543)  2.41437927E-02                    1_GWF-(1,11112)
         45          1         45     -0.61623972                    1_GWF-(1,26542)  2.27992143E-02                    1_GWF-(1,11158)
         46          1         46     -0.82865804                    1_GWF-(1,26218)  3.05897482E-02                    1_GWF-(1,11153)
         47          1         47      -1.1582001                    1_GWF-(1,26217) -2.64772242E-02                    1_GWF-(1,11153)
         48          1         48      -1.2844280                    1_GWF-(1,26218) -2.03086597E-02                    1_GWF-(1,11152)
         49          1         49      -1.2264291                    1_GWF-(1,26217) -2.18999890E-02                    1_GWF-(1,11150)
         50          1         50      -1.1322848                    1_GWF-(1,26218) -2.13733033E-02                    1_GWF-(1,11153)
         51          2          1      -97.916566                    1_GWF-(1,26519)     -0.18875742                    1_GWF-(1,26458)
         52          2          2      -36.685513                    1_GWF-(1,26513) -5.27399809E-02                    1_GWF-(1,26516)
         53          2          3      -20.783926                    1_GWF-(1,26637)  5.27947519E-02                    1_GWF-(1,26516)
         54          2          4      -22.161485                    1_GWF-(1,26665) -1.93260304E-02                    1_GWF-(1,26519)
         55          2          5      -12.253469                    1_GWF-(1,26622)  2.01332000E-02                    1_GWF-(1,26519)
         56          2          6      -11.463275                    1_GWF-(1,26589)  1.45708004E-02                    1_GWF-(1,26516)
         57          2          7      -9.9761009                    1_GWF-(1,26543) -1.18720180E-02                    1_GWF-(1,26516)
         58          2          8      -8.0056521                    1_GWF-(1,26486)  8.95474083E-03                    1_GWF-(1,26519)
         59          2          9      -5.3502493                    1_GWF-(1,26487)  6.69489018E-03                    1_GWF-(1,26665)
         60          2         10      -4.6117772                    1_GWF-(1,26421) -5.77480130E-03                    1_GWF-(1,26665)
         61          2         11      -4.0036886                    1_GWF-(1,26350)  4.32625773E-03                    1_GWF-(1,26519)
         62          2         12      -3.0117608                    1_GWF-(1,26217)  3.52172882E-03                    1_GWF-(1,26516)
         63          2         13      -1.5546132                    1_GWF-(1,26622) -2.34182630E-03                    1_GWF-(1,26622)
         64          2         14      -1.2531328                    1_GWF-(1,26623) -2.20799788E-03                    1_GWF-(1,26563)
         65          2         15      -1.1678438                    1_GWF-(1,26622)  3.15374438E-03                    1_GWF-(1,26516)
         66          2         16      -1.5616020                    1_GWF-(1,25730)  4.06019785E-03                    1_GWF-(1,26599)
         67          2         17       1.3671410                    1_GWF-(1,26350) -2.91955885E-03                    1_GWF-(1,26563)
         68          2         18       1.3136070                    1_GWF-(1,26422) -1.97616601E-03                    1_GWF-(1,26588)
         69          2         19       1.1993364                    1_GWF-(1,26588)  1.94180105E-03                    1_GWF-(1,26588)
         70          2         20       1.0165756                    1_GWF-(1,26543) -2.30220550E-03                    1_GWF-(1,26563)
         71          2         21       1.0790303                    1_GWF-(1,26544)  1.97459050E-03                    1_GWF-(1,14801)
         72          2         22       1.1575473                    1_GWF-(1,26486)  2.43566402E-03                    1_GWF-(1,26601)
         73          2         23     -0.88609162                    1_GWF-(1,26218) -2.68904729E-03                    1_GWF-(1,26563)
         74          2         24      -1.4586292                    1_GWF-(1,26487)  2.65909670E-03                    1_GWF-(1,26486)
         75          2         25      -1.6431179                    1_GWF-(1,26486)  2.69960989E-03                    1_GWF-(1,26563)
         76          2         26      -1.5731633                    1_GWF-(1,26487) -2.75978078E-03                    1_GWF-(1,26563)
         77          2         27     -0.94510517                    1_GWF-(1,26420) -1.90477418E-03                    1_GWF-(1,26562)
         78          2         28      0.86966433                    1_GWF-(1,26217)  2.17432092E-03                    1_GWF-(1,26563)
         79          2         29      0.68102974                    1_GWF-(1,26218) -1.74510715E-03                    1_GWF-(1,26563)
         80          2         30      0.69097538                    1_GWF-(1,26420) -1.99897454E-03                    1_GWF-(1,26562)
         81          2         31     -0.47820008                    1_GWF-(1,26674)  1.36779500E-03                    1_GWF-(1,26562)
         82          2         32     -0.46230858                    1_GWF-(1,26421) -1.40580084E-03                    1_GWF-(1,26516)
         83          2         33     -0.57720577                    1_GWF-(1,26350) -1.62078159E-03                    1_GWF-(1,26562)
         84          2         34      0.58871489                    1_GWF-(1,26350)  1.88524873E-03                    1_GWF-(1,26562)
         85          2         35      0.87001892                    1_GWF-(1,26422) -1.28650122E-03                    1_GWF-(1,10966)
         86          2         36      0.56251565                    1_GWF-(1,26350) -1.71931147E-03                    1_GWF-(1,26562)
         87          2         37     -0.53630455                    1_GWF-(1,26350)  1.97505236E-03                    1_GWF-(1,26562)
         88          2         38     -0.35003110                    1_GWF-(1,26217)  1.34498954E-03                    1_GWF-(1,14960)
         89          2         39     -0.34442961                    1_GWF-(1,26544)  1.61857539E-03                    1_GWF-(1,14961)
         90          2         40     -0.37518329                    1_GWF-(1,26486) -1.99771309E-03                    1_GWF-(1,10966)
         91          2         41     -0.26173120                    1_GWF-(1,26420)  2.08017352E-03                    1_GWF-(1,14800)
         92          2         42     -0.21025289                    1_GWF-(1,26588)  2.44166650E-03                    1_GWF-(1,14801)
         93          2         43     -0.25860990                    1_GWF-(1,25852)  3.12414740E-03                    1_GWF-(1,10966)
         94          2         44     -0.23436559                    1_GWF-(1,26196)  3.17086587E-03                    1_GWF-(1,14801)
         95          2         45     -0.21296435                    1_GWF-(1,26420)  5.09813846E-03                    1_GWF-(1,10966)
         96          2         46     -0.19781752                    1_GWF-(1,26569)  4.05223150E-03                    1_GWF-(1,10961)
         97          2         47      0.18772111                    1_GWF-(1,26193)  6.18798641E-03                    1_GWF-(1,10966)
         98          2         48      0.14641313                    1_GWF-(1,26398)  4.58767005E-03                    1_GWF-(1,10961)
         99          2         49      0.14400949                    1_GWF-(1,22773)  6.00604542E-03                    1_GWF-(1,10966)
        100          2         50      0.14772623                    1_GWF-(1,26196)  4.30295592E-03                    1_GWF-(1,10961)
        101          3          1  8.07955684E-02                    1_GWF-(1,22783) -7.48761634E-03                    1_GWF-(1,11936)
        102          3          2      0.15058570                    1_GWF-(1,22783)  5.00085635E-03                    1_GWF-(1,10961)
        103          3          3      0.10849453                    1_GWF-(1,26649)  7.70742795E-03                    1_GWF-(1,10966)
        104          3          4     -0.15032466                    1_GWF-(1,22783) -5.06397971E-03                    1_GWF-(1,11936)
        105          3          5      0.14163488                    1_GWF-(1,26588)  4.39408184E-03                    1_GWF-(1,10966)
        106          3          6      0.11648396                    1_GWF-(1,26194)  3.39448367E-03                    1_GWF-(1,14801)
        107          3          7     -0.12386166                    1_GWF-(1,26350)  3.81266726E-03                    1_GWF-(1,10966)
        108          3          8     -0.10866726                    1_GWF-(1,26421)  2.09004951E-03                    1_GWF-(1,14801)
        109          3          9      0.11039341                    1_GWF-(1,26588)  2.44890538E-03                    1_GWF-(1,10966)
        110          3         10  9.17856190E-02                    1_GWF-(1,26420) -2.47495834E-03                    1_GWF-(1,14800)
        111          3         11      0.12450543                    1_GWF-(1,26486) -2.24224584E-03                    1_GWF-(1,14801)
        112          3         12      0.10382284                    1_GWF-(1,26648) -1.93525334E-03                    1_GWF-(1,14800)
        113          3         13     -0.10001926                    1_GWF-(1,26672) -1.67244613E-03                    1_GWF-(1,14801)
        114          3         14 -9.64595743E-02                    1_GWF-(1,26622) -1.32125252E-03                    1_GWF-(1,14800)
        115          3         15     -0.11681741                    1_GWF-(1,26350)  1.01124995E-03                    1_GWF-(1,15940)
        116          3         16     -0.13348782                    1_GWF-(1,26422) -9.24473273E-04                    1_GWF-(1,15940)
        117          3         17      0.10406245                    1_GWF-(1,26422) -1.02125434E-03                    1_GWF-(1,10966)
        118          3         18      0.12451206                    1_GWF-(1,26350)  8.53123084E-04                    1_GWF-(1,10966)
        119          3         19      0.11582703                    1_GWF-(1,26422)  9.88442943E-04                    1_GWF-(1,14801)
        120          3         20     -0.10816648                    1_GWF-(1,26422)  1.00720665E-03                    1_GWF-(1,14800)
        121          3         21 -8.39547119E-02                    1_GWF-(1,26420)  1.04406752E-03                    1_GWF-(1,14801)
        122          3         22     -0.10617217                    1_GWF-(1,26672)  8.27266105E-04                    1_GWF-(1,14800)
        123          3         23  8.00758129E-02                    1_GWF-(1,26648) -5.40555057E-04                    1_GWF-(1,15940)
        124          3         24      0.11816319                    1_GWF-(1,26588) -8.69907953E-04                    1_GWF-(1,10966)
        125          3         25      0.14238355                    1_GWF-(1,26543) -8.60043399E-04                    1_GWF-(1,14801)
        126          3         26      0.13736617                    1_GWF-(1,26588) -4.91082220E-04                    1_GWF-(1,15940)
        127          3         27     -0.11985610                    1_GWF-(1,26623) -9.88570794E-04                    1_GWF-(1,10966)
        128          3         28 -7.73968204E-02                    1_GWF-(1,26586) -8.61338354E-04                    1_GWF-(1,10961)
        129          3         29 -9.23223782E-02                    1_GWF-(1,26543) -1.28508721E-03                    1_GWF-(1,10966)
        130          3         30 -9.37378199E-02                    1_GWF-(1,26420) -9.95788035E-04                    1_GWF-(1,14801)
        131          3         31     -0.11273495                    1_GWF-(1,26487)  7.67815753E-04                    1_GWF-(1,14801)
        132          3         32 -9.07029891E-02                    1_GWF-(1,26420) -3.32715391E-04                    1_GWF-(1,10966)
        133          3         33 -7.27371766E-02                    1_GWF-(1,26422)  8.60436559E-04                    1_GWF-(1,14800)
        134          3         34 -5.52115702E-02                    1_GWF-(1,26350)  1.23942951E-03                    1_GWF-(1,14801)
        135          3         35  5.08914994E-02                    1_GWF-(1,26623)  1.19919214E-03                    1_GWF-(1,14800)
        136          3         36 -5.22562946E-02                    1_GWF-(1,26486)  9.18362281E-04                    1_GWF-(1,14801)
        137          3         37  5.54537506E-02                    1_GWF-(1,26649)  3.06421203E-04                    1_GWF-(1,14800)
        138          3         38  6.25744278E-02                    1_GWF-(1,26622)  7.69735829E-04                    1_GWF-(1,14800)
        139          3         39  5.27116863E-02                    1_GWF-(1,22786)  1.34212586E-03                    1_GWF-(1,14801)
        140          3         40 -4.96920078E-02                    1_GWF-(1,26665) -1.51587947E-03                    1_GWF-(1,14801)
        141          3         41  7.38990936E-02                    1_GWF-(1,26665)  1.03418978E-03                    1_GWF-(1,14801)
        142          3         42 -9.18042446E-02                    1_GWF-(1,26665)  2.48003857E-04                    1_GWF-(1,10961)
        143          3         43 -9.09404534E-02                    1_GWF-(1,26666)  1.40318647E-03                    1_GWF-(1,14800)
        144          3         44 -5.48271995E-02                    1_GWF-(1,26665)  2.03337671E-03                    1_GWF-(1,14801)
        145          3         45  8.22379928E-02                    1_GWF-(1,26665) -2.73979382E-03                    1_GWF-(1,14801)
        146          3         46  6.65295888E-02                    1_GWF-(1,26666) -2.99810342E-03                    1_GWF-(1,14800)
        147          3         47 -4.50999888E-02                    1_GWF-(1,26482) -2.96893034E-03                    1_GWF-(1,14801)
        148          3         48 -4.12866570E-02                    1_GWF-(1,26648)  2.15551183E-03                    1_GWF-(1,14801)
        149          3         49 -5.16142219E-02                    1_GWF-(1,26649) -1.91571463E-03                    1_GWF-(1,14801)
        150          3         50 -4.80128232E-02                    1_GWF-(1,26466) -1.31098241E-03                    1_GWF-(1,14800)
        151          4          1  2.43342513E-02                    1_GWF-(1,26218) -9.85626804E-04                    1_GWF-(1,14801)
        152          4          2 -1.77836221E-02                    1_GWF-(1,11436)  1.00908501E-03                    1_GWF-(1,14801)
        153          4          3 -2.06455973E-02                    1_GWF-(1,26217) -9.90891342E-04                    1_GWF-(1,14801)
        154          4          4 -1.96378199E-02                    1_GWF-(1,26218) -8.67571199E-04                    1_GWF-(1,14800)
        155          4          5 -1.79225984E-02                    1_GWF-(1,26422) -6.83651078E-04                    1_GWF-(1,14801)
        156          4          6 -1.84947379E-02                    1_GWF-(1,26218) -4.17190778E-04                    1_GWF-(1,14800)
        157          4          7 -1.56026536E-02                    1_GWF-(1,26217)  1.52939485E-04                    1_GWF-(1,14800)
        158          4          8 -1.40629320E-02                    1_GWF-(1,26665)  1.16063390E-04                    1_GWF-(1,14800)
        159          4          9  1.81480625E-02                    1_GWF-(1,26665)  2.66293352E-04                    1_GWF-(1,14801)
        160          4         10  1.62912382E-02                    1_GWF-(1,26666)  2.50314123E-04                    1_GWF-(1,14800)
        161          4         11  1.58860844E-02                    1_GWF-(1,26665)  1.38066395E-04                    1_GWF-(1,14801)
        162          4         12  7.85391338E-03                    1_GWF-(1,26588)  1.17840558E-04                    1_GWF-(1,14801)
        163          4         13 -7.52014505E-03                    1_GWF-(1,26622)  2.15357126E-04                    1_GWF-(1,14800)
        164          4         14  9.35834376E-03                    1_GWF-(1,26622)  2.07768156E-04                    1_GWF-(1,14801)
        165          4         15  8.30279924E-03                    1_GWF-(1,26623)  1.13600857E-04                    1_GWF-(1,14800)
        166          4         16 -7.07201733E-03                    1_GWF-(1,26623)  8.41697650E-05                    1_GWF-(1,14800)
        167          4         17 -7.40869436E-03                    1_GWF-(1,26622)  2.01305314E-04                    1_GWF-(1,14801)
        168          4         18 -5.14975739E-03                    1_GWF-(1,26486)  2.58958436E-04                    1_GWF-(1,14800)
        169          4         19  6.64980467E-03                    1_GWF-(1,26588)  2.37983357E-04                    1_GWF-(1,14801)
        170          4         20  8.30086665E-03                    1_GWF-(1,26487)  8.90401072E-05                    1_GWF-(1,14800)
        171          4         21  7.84457614E-03                    1_GWF-(1,26420)  1.16243223E-04                    1_GWF-(1,14800)
        172          4         22  5.41143321E-03                    1_GWF-(1,26487)  2.50274072E-04                    1_GWF-(1,14801)
        173          4         23 -4.71151782E-03                    1_GWF-(1,26649) -3.41458115E-04                    1_GWF-(1,14801)
        174          4         24 -5.14776440E-03                    1_GWF-(1,26622) -3.85020272E-04                    1_GWF-(1,14800)
        175          4         25 -7.50682448E-03                    1_GWF-(1,26623) -3.06051987E-04                    1_GWF-(1,14801)
        176          4         26 -7.39487737E-03                    1_GWF-(1,26589) -9.24922318E-05                    1_GWF-(1,14800)
        177          4         27 -7.14774764E-03                    1_GWF-(1,26588) -1.53080837E-04                    1_GWF-(1,14800)
        178          4         28  6.69707533E-03                    1_GWF-(1,26588) -2.70697837E-04                    1_GWF-(1,14801)
        179          4         29 -4.35890068E-03                    1_GWF-(1,26544) -2.48918573E-04                    1_GWF-(1,14800)
        180          4         30  2.71934101E-03                    1_GWF-(1,26544) -1.98189367E-04                    1_GWF-(1,14801)
        181          4         31  4.31643028E-03                    1_GWF-(1,26486)  1.30093594E-04                    1_GWF-(1,14801)
        182          4         32 -3.91811103E-03                    1_GWF-(1,26422)  6.04622255E-05                    1_GWF-(1,14800)
        183          4         33  4.83841101E-03                    1_GWF-(1,26422)  4.98513062E-05                    1_GWF-(1,10966)
        184          4         34 -4.48716872E-03                    1_GWF-(1,26422)  1.02941441E-04                    1_GWF-(1,14801)
        185          4         35 -4.86001936E-03                    1_GWF-(1,26350)  1.48584183E-04                    1_GWF-(1,14800)
        186          4         36 -4.92976560E-03                    1_GWF-(1,26422)  1.61060073E-04                    1_GWF-(1,14801)
        187          4         37 -3.21985857E-03                    1_GWF-(1,26350)  1.50364297E-04                    1_GWF-(1,14800)
        188          4         38 -2.11455724E-03                    1_GWF-(1,22903)  1.50123680E-04                    1_GWF-(1,14801)
        189          4         39 -1.98319435E-03                    1_GWF-(1,22908)  1.28883769E-04                    1_GWF-(1,14800)
        190          4         40  1.82200867E-03                    1_GWF-(1,26543)  1.14672096E-04                    1_GWF-(1,14801)
        191          4         41  1.89955709E-03                    1_GWF-(1,26394) -9.46978700E-05                    1_GWF-(1,14801)
        192          4         42  1.62364087E-03                    1_GWF-(1,26487)  8.28577921E-05                    1_GWF-(1,14801)
        193          4         43  1.69890175E-03                    1_GWF-(1,26421)  7.61605185E-05                    1_GWF-(1,14800)
        194          4         44  2.27092266E-03                    1_GWF-(1,26350)  6.14227190E-05                    1_GWF-(1,14801)
        195          4         45  1.75941058E-03                    1_GWF-(1,26218)  5.22254866E-05                    1_GWF-(1,10965)
        196          4         46  1.68266027E-03                    1_GWF-(1,26487)  8.06211464E-05                    1_GWF-(1,10966)
        197          4         47  1.09741299E-03                    1_GWF-(1,26673) -6.10623784E-05                    1_GWF-(1,10966)
        198          4         48  1.36364043E-03                    1_GWF-(1,26672)  7.24237885E-05                    1_GWF-(1,10966)
        199          4         49 -1.43974128E-03                    1_GWF-(1,26672)  4.77816478E-05                    1_GWF-(1,10961)
        200          4         50 -1.42871201E-03                    1_GWF-(1,26663)  5.33489829E-05                    1_GWF-(1,10966)
        201          5          1 -5.45150672E-03                    1_GWF-(1,11460)  2.44899333E-05                    1_GWF-(1,10965)
        202          5          2 -1.97816056E-03                    1_GWF-(1,11459)  4.59400870E-05                    1_GWF-(1,10966)
        203          5          3 -1.01559681E-03                    1_GWF-(1,11925)  3.60868047E-05                    1_GWF-(1,10965)
        204          5          4  1.32103644E-03                    1_GWF-(1,11461)  5.34107350E-05                    1_GWF-(1,10966)
        205          5          5 -1.03159709E-03                    1_GWF-(1,26487)  3.54175516E-05                    1_GWF-(1,10965)
        206          5          6 -1.11306234E-03                    1_GWF-(1,26663)  3.58400348E-05                    1_GWF-(1,10966)
        207          5          7 -1.30786591E-03                    1_GWF-(1,26674)  1.75054647E-05                    1_GWF-(1,10961)
        208          5          8 -8.64123305E-04                    1_GWF-(1,26588)  1.33339125E-05                    1_GWF-(1,10966)
        209          5          9  9.04771847E-04                    1_GWF-(1,11884)  1.25542717E-05                    1_GWF-(1,10966)
        210          5         10 -1.15841538E-03                    1_GWF-(1,26649) -1.61900017E-05                    1_GWF-(1,10966)
        211          5         11  1.87775456E-03                    1_GWF-(1,26649)  2.65955454E-05                    1_GWF-(1,10966)
        212          5         12  2.28301281E-03                    1_GWF-(1,26622)  1.05745081E-05                    1_GWF-(1,10965)
        213          5         13  1.64264691E-03                    1_GWF-(1,26623) -9.40670055E-06                    1_GWF-(1,10966)
        214          5         14 -1.10942906E-03                    1_GWF-(1,26623)  2.20483541E-05                    1_GWF-(1,10966)
        215          5         15  7.29276570E-04                    1_GWF-(1,26623) -3.35179442E-05                    1_GWF-(1,10966)
        216          5         16  8.01513258E-04                    1_GWF-(1,26486)  3.82773398E-05                    1_GWF-(1,10966)
        217          5         17  1.00197518E-03                    1_GWF-(1,26544) -3.08741845E-05                    1_GWF-(1,10966)
        218          5         18  1.55060298E-03                    1_GWF-(1,26486) -1.39860236E-05                    1_GWF-(1,10965)
        219          5         19 -1.32554029E-03                    1_GWF-(1,26486) -1.25020780E-05                    1_GWF-(1,10961)
        220          5         20 -1.16037298E-03                    1_GWF-(1,26487) -3.21688987E-05                    1_GWF-(1,10966)
        221          5         21 -8.41723225E-04                    1_GWF-(1,26420)  3.69161040E-05                    1_GWF-(1,10966)
        222          5         22 -8.78179927E-04                    1_GWF-(1,26422) -4.38453748E-05                    1_GWF-(1,10966)
        223          5         23 -1.13404966E-03                    1_GWF-(1,26350)  3.05241703E-05                    1_GWF-(1,10966)
        224          5         24 -1.16387867E-03                    1_GWF-(1,26422) -2.67527766E-05                    1_GWF-(1,10966)
        225          5         25  1.12266452E-03                    1_GWF-(1,26422) -1.19836653E-05                    1_GWF-(1,10965)
        226          5         26  1.26055910E-03                    1_GWF-(1,26350) -1.05331230E-05                    1_GWF-(1,10961)
        227          5         27  1.10677407E-03                    1_GWF-(1,26422) -2.39816515E-05                    1_GWF-(1,10966)
        228          5         28 -7.66670163E-04                    1_GWF-(1,26588)  2.79495655E-05                    1_GWF-(1,10966)
        229          5         29 -6.51288668E-04                    1_GWF-(1,26589) -2.85573293E-05                    1_GWF-(1,10966)
        230          5         30 -7.74192732E-04                    1_GWF-(1,26588) -1.26355916E-05                    1_GWF-(1,10961)
        231          5         31  7.34108696E-04                    1_GWF-(1,26588) -4.26476035E-06                    1_GWF-(1,10965)
        232          5         32 -6.53949814E-04                    1_GWF-(1,26420) -1.74594221E-05                    1_GWF-(1,10966)
        233          5         33 -5.39523853E-04                    1_GWF-(1,26421)  1.95729537E-05                    1_GWF-(1,10966)
        234          5         34 -3.94740203E-04                    1_GWF-(1,26350) -2.17973179E-05                    1_GWF-(1,10966)
        235          5         35 -2.41446366E-04                    1_GWF-(1,26421)  2.36069995E-05                    1_GWF-(1,10966)
        236          5         36  2.46993261E-04                    1_GWF-(1,22732) -2.10175707E-05                    1_GWF-(1,10966)
        237          5         37 -2.38557297E-04                    1_GWF-(1,26327)  1.68063147E-05                    1_GWF-(1,10966)
        238          5         38  2.62582388E-04                    1_GWF-(1,26674) -1.52085252E-05                    1_GWF-(1,10966)
        239          5         39  2.86802461E-04                    1_GWF-(1,26217)  1.29674387E-05                    1_GWF-(1,10966)
        240          5         40  3.32201421E-04                    1_GWF-(1,26218) -1.16104990E-05                    1_GWF-(1,10966)
        241          5         41 -3.71175392E-04                    1_GWF-(1,26218)  1.19540850E-05                    1_GWF-(1,10966)
        242          5         42 -5.11981094E-04                    1_GWF-(1,26217) -6.35915367E-06                    1_GWF-(1,10966)
        243          5         43 -5.63574021E-04                    1_GWF-(1,26665)  3.23799382E-06                    1_GWF-(1,14800)
        244          5         44  5.42005084E-04                    1_GWF-(1,26665)  7.67494500E-06                    1_GWF-(1,10966)
        245          5         45  5.92164408E-04                    1_GWF-(1,26666)  6.61985111E-06                    1_GWF-(1,10961)
        246          5         46  6.70315866E-04                    1_GWF-(1,26665)  6.17291482E-06                    1_GWF-(1,10966)
        247          5         47  4.59533706E-04                    1_GWF-(1,26666)  4.47684185E-06                    1_GWF-(1,10965)
        248          5         48  3.98667019E-04                    1_GWF-(1,26217)  2.44111416E-06                    1_GWF-(1,10966)
        249          5         49  3.20141808E-04                    1_GWF-(1,26218)  2.53744952E-06                    1_GWF-(1,10966)
        250          5         50 -3.07552847E-04                    1_GWF-(1,26218)  4.95968845E-06                    1_GWF-(1,10965)
        251          6          1 -2.75123601E-04                    1_GWF-(1,26217)  5.72729303E-06                    1_GWF-(1,10966)
        252          6          2 -3.02536691E-04                    1_GWF-(1,26218) -3.52683275E-06                    1_GWF-(1,10966)
        253          6          3 -2.83985770E-04                    1_GWF-(1,26217)  3.02163161E-06                    1_GWF-(1,10966)
        254          6          4 -1.96159453E-04                    1_GWF-(1,26218)  1.18993601E-06                    1_GWF-(1,10961)
        255          6          5 -2.90199950E-04                    1_GWF-(1,26588)  1.58989725E-06                    1_GWF-(1,10961)
        256          6          6 -2.80067005E-04                    1_GWF-(1,26543)  2.48806214E-06                    1_GWF-(1,10966)
        257          6          7 -2.22362931E-04                    1_GWF-(1,26487)  1.83726895E-06                    1_GWF-(1,10965)
        258          6          8 -1.51459203E-04                    1_GWF-(1,26622)  6.40819353E-07                    1_GWF-(1,10960)
        259          6          9 -1.67442411E-04                    1_GWF-(1,26623) -8.75836102E-07                    1_GWF-(1,10965)
        260          6         10  1.58031622E-04                    1_GWF-(1,26487)  1.39486425E-06                    1_GWF-(1,10965)
        261          6         11  1.40817368E-04                    1_GWF-(1,26622)  1.54577434E-06                    1_GWF-(1,10966)
        262          6         12  1.03284299E-04                    1_GWF-(1,26217) -1.08718442E-06                    1_GWF-(1,10966)
        263          6         13  1.17625293E-04                    1_GWF-(1,26218)  6.15056048E-07                    1_GWF-(1,14799)
        264          6         14  7.87642683E-05                    1_GWF-(1,26217)  7.58798326E-07                    1_GWF-(1,14801)
        265          6         15  9.58926352E-05                    1_GWF-(1,26622) -1.09893621E-06                    1_GWF-(1,10966)
        266          6         16  9.96401038E-05                    1_GWF-(1,26649) -1.03231805E-06                    1_GWF-(1,10965)
        267          6         17 -1.03276786E-04                    1_GWF-(1,26649) -7.91851584E-07                    1_GWF-(1,10960)
        268          6         18 -7.97651853E-05                    1_GWF-(1,26622)  8.34482859E-07                    1_GWF-(1,14799)
        269          6         19  4.90749804E-05                    1_GWF-(1,25772) -1.59927337E-06                    1_GWF-(1,10965)
        270          6         20  5.71471725E-05                    1_GWF-(1,25766) -2.49609812E-06                    1_GWF-(1,10966)
        271          6         21  5.79397130E-05                    1_GWF-(1,22704)  2.50268936E-06                    1_GWF-(1,10966)
        272          6         22  4.74396697E-05                    1_GWF-(1,25701) -3.33906536E-06                    1_GWF-(1,10966)
        273          6         23 -5.77053277E-05                    1_GWF-(1,26486)  3.20759944E-06                    1_GWF-(1,10966)
        274          6         24 -5.54298712E-05                    1_GWF-(1,26544) -3.21239013E-06                    1_GWF-(1,10966)
        275          6         25 -6.88799054E-05                    1_GWF-(1,26422) -2.33070520E-06                    1_GWF-(1,10965)
        276          6         26 -8.61592539E-05                    1_GWF-(1,26350) -1.96933497E-06                    1_GWF-(1,10966)
        277          6         27 -8.19441973E-05                    1_GWF-(1,26422)  9.63119921E-07                    1_GWF-(1,10966)
        278          6         28  9.40296877E-05                    1_GWF-(1,26422) -4.32934962E-07                    1_GWF-(1,11132)
        279          6         29  8.04850999E-05                    1_GWF-(1,26350) -1.14501713E-06                    1_GWF-(1,10966)
        280          6         30  5.73275112E-05                    1_GWF-(1,26422)  1.60717209E-06                    1_GWF-(1,10966)
        281          6         31  3.97697872E-05                    1_GWF-(1,26420) -1.37373587E-06                    1_GWF-(1,10966)
        282          6         32 -5.65757075E-05                    1_GWF-(1,26588) -6.77908869E-07                    1_GWF-(1,10965)
        283          6         33  5.30266277E-05                    1_GWF-(1,26588)  3.47475035E-07                    1_GWF-(1,10966)
        284          6         34 -6.37319311E-05                    1_GWF-(1,26588)  9.14031610E-07                    1_GWF-(1,10965)
        285          6         35 -3.75382316E-05                    1_GWF-(1,26589)  1.43647444E-06                    1_GWF-(1,10966)
        286          6         36 -3.72010304E-05                    1_GWF-(1,26422) -1.69278622E-06                    1_GWF-(1,10966)
        287          6         37 -3.06848068E-05                    1_GWF-(1,26350)  1.67515167E-06                    1_GWF-(1,10966)
        288          6         38 -2.58857364E-05                    1_GWF-(1,26422) -1.39158285E-06                    1_GWF-(1,10966)
        289          6         39  2.27752962E-05                    1_GWF-(1,26588)  1.35667518E-06                    1_GWF-(1,10966)
        290          6         40  2.44774480E-05                    1_GWF-(1,26543) -8.00901558E-07                    1_GWF-(1,10966)
        291          6         41  2.99069891E-05                    1_GWF-(1,26649)  4.84352535E-07                    1_GWF-(1,10966)
        292          6         42  3.83710638E-05                    1_GWF-(1,26486)  4.31004934E-07                    1_GWF-(1,10966)
        293          6         43  3.54467698E-05                    1_GWF-(1,26487)  6.67011977E-07                    1_GWF-(1,10965)
        294          6         44  2.82273254E-05                    1_GWF-(1,26543)  8.18718057E-07                    1_GWF-(1,10966)
        295          6         45  2.24134637E-05                    1_GWF-(1,26544)  4.75227527E-07                    1_GWF-(1,10965)
        296          6         46  2.26512027E-05                    1_GWF-(1,26486)  5.21899316E-07                    1_GWF-(1,10966)
        297          6         47  1.78676297E-05                    1_GWF-(1,26648)  3.15442454E-07                    1_GWF-(1,10961)
        298          6         48  1.47055088E-05                    1_GWF-(1,26586)  1.78969902E-07                    1_GWF-(1,10960)
        299          6         49  1.32920889E-05                    1_GWF-(1,26672)  2.11416302E-07                    1_GWF-(1,10966)
        300          6         50  2.08058930E-05                    1_GWF-(1,11460)  2.13275431E-07                    1_GWF-(1,10961)
        301          7          1 -2.08943894E-05                    1_GWF-(1,26649)  3.13259819E-07                    1_GWF-(1,10966)
        302          7          2  1.86238384E-05                    1_GWF-(1,26649)  1.78466354E-07                    1_GWF-(1,10965)
        303          7          3 -2.15822391E-05                    1_GWF-(1,26486)  1.54371620E-07                    1_GWF-(1,10961)
        304          7          4 -2.43444465E-05                    1_GWF-(1,26487)  2.69734717E-07                    1_GWF-(1,10966)
        305          7          5 -2.25148006E-05                    1_GWF-(1,26420)  2.56706110E-07                    1_GWF-(1,10965)
        306          7          6 -1.79649302E-05                    1_GWF-(1,26663)  2.07986193E-07                    1_GWF-(1,10966)
        307          7          7 -2.15489200E-05                    1_GWF-(1,26674)  1.19454716E-07                    1_GWF-(1,11045)
        308          7          8  2.07479369E-05                    1_GWF-(1,26674)  1.56002101E-07                    1_GWF-(1,10967)
        309          7          9  2.35897732E-05                    1_GWF-(1,26663)  1.50488129E-07                    1_GWF-(1,10966)
        310          7         10  2.21821065E-05                    1_GWF-(1,26665)  1.34727982E-07                    1_GWF-(1,10961)
        311          7         11 -2.13096841E-05                    1_GWF-(1,26665)  1.70483664E-07                    1_GWF-(1,10967)
        312          7         12  1.83286148E-05                    1_GWF-(1,26622)  1.25778913E-07                    1_GWF-(1,10965)
        313          7         13  1.94371362E-05                    1_GWF-(1,26623)  9.66019330E-08                    1_GWF-(1,10963)
        314          7         14 -1.50467995E-05                    1_GWF-(1,26623) -1.07859410E-07                    1_GWF-(1,10965)
        315          7         15  1.75935938E-05                    1_GWF-(1,26588)  8.79610101E-08                    1_GWF-(1,11043)
        316          7         16  1.68561098E-05                    1_GWF-(1,26543)  8.27689221E-08                    1_GWF-(1,10963)
        317          7         17  1.48682280E-05                    1_GWF-(1,26665)  8.03844457E-08                    1_GWF-(1,10966)
        318          7         18  1.09377146E-05                    1_GWF-(1,26543) -9.55450833E-08                    1_GWF-(1,10966)
        319          7         19  8.82526947E-06                    1_GWF-(1,25796)  1.19588217E-07                    1_GWF-(1,15940)
        320          7         20 -8.54655173E-06                    1_GWF-(1,26486) -1.41723735E-07                    1_GWF-(1,10966)
        321          7         21 -9.91275836E-06                    1_GWF-(1,26487)  1.44942156E-07                    1_GWF-(1,10966)
        322          7         22 -8.67222015E-06                    1_GWF-(1,26588) -2.20336628E-07                    1_GWF-(1,10966)
        323          7         23 -1.38001958E-05                    1_GWF-(1,26589) -1.28223955E-07                    1_GWF-(1,10961)
        324          7         24 -2.32330810E-05                    1_GWF-(1,26588) -7.04428040E-08                    1_GWF-(1,10969)
        325          7         25 -1.55752649E-05                    1_GWF-(1,26543) -1.54833374E-07                    1_GWF-(1,10966)
        326          7         26  1.08811118E-05                    1_GWF-(1,26589) -1.90275136E-07                    1_GWF-(1,10965)
        327          7         27  9.39882457E-06                    1_GWF-(1,26350) -2.15729444E-07                    1_GWF-(1,10966)
        328          7         28  9.63502421E-06                    1_GWF-(1,26422)  1.60019702E-07                    1_GWF-(1,10966)
        329          7         29  9.59000316E-06                    1_GWF-(1,26350) -1.87948999E-07                    1_GWF-(1,10966)
        330          7         30  1.03601909E-05                    1_GWF-(1,26422) -1.07084191E-07                    1_GWF-(1,10961)
        331          7         31  9.77416560E-06                    1_GWF-(1,26350) -6.23939406E-08                    1_GWF-(1,10966)
        332          7         32  8.93948204E-06                    1_GWF-(1,26422) -8.12693772E-08                    1_GWF-(1,10967)
        333          7         33 -7.24892212E-06                    1_GWF-(1,26422) -7.38503517E-08                    1_GWF-(1,10961)
        334          7         34  7.13755012E-06                    1_GWF-(1,26486) -8.35558233E-08                    1_GWF-(1,10966)
        335          7         35  6.82987206E-06                    1_GWF-(1,26622) -8.18978881E-08                    1_GWF-(1,10965)
        336          7         36 -8.34888174E-06                    1_GWF-(1,26622)  4.50409745E-08                    1_GWF-(1,14801)
        337          7         37 -7.37684888E-06                    1_GWF-(1,26649) -5.67518684E-08                    1_GWF-(1,10960)
        338          7         38  5.54335318E-06                    1_GWF-(1,26649)  7.77647815E-08                    1_GWF-(1,10966)
        339          7         39 -3.73619049E-06                    1_GWF-(1,26350) -1.19372388E-07                    1_GWF-(1,10966)
        340          7         40 -3.84354243E-06                    1_GWF-(1,26421)  9.23883004E-08                    1_GWF-(1,10966)
        341          7         41 -4.75295310E-06                    1_GWF-(1,26487) -6.76317690E-08                    1_GWF-(1,10966)
        342          7         42 -8.17457969E-06                    1_GWF-(1,26486) -5.11803995E-08                    1_GWF-(1,10965)
        343          7         43 -6.68236113E-06                    1_GWF-(1,26487)  2.83030427E-08                    1_GWF-(1,11043)
        344          7         44  7.94245522E-06                    1_GWF-(1,26487)  6.20790943E-08                    1_GWF-(1,10965)
        345          7         45  7.25363691E-06                    1_GWF-(1,26486)  8.77527430E-08                    1_GWF-(1,10966)
        346          7         46  4.60983284E-06                    1_GWF-(1,26588)  5.57979880E-08                    1_GWF-(1,10961)
        347          7         47  3.95475558E-06                    1_GWF-(1,26420)  7.28386633E-08                    1_GWF-(1,10966)
        348          7         48  5.58198739E-06                    1_GWF-(1,26218)  4.61182149E-08                    1_GWF-(1,10961)
        349          7         49  5.46861858E-06                    1_GWF-(1,26217)  5.12767532E-08                    1_GWF-(1,10966)
        350          7         50  3.82655493E-06                    1_GWF-(1,26218)  3.98874416E-08                    1_GWF-(1,10965)
        351          8          1 -4.48212286E-06                    1_GWF-(1,26218)  5.44191107E-08                    1_GWF-(1,10966)
        352          8          2 -5.47296783E-06                    1_GWF-(1,26217)  2.32433042E-08                    1_GWF-(1,10961)
        353          8          3 -4.03148109E-06                    1_GWF-(1,26218)  2.20708051E-08                    1_GWF-(1,11042)
        354          8          4 -2.99978864E-06                    1_GWF-(1,26588)  2.08576920E-08                    1_GWF-(1,10966)
        355          8          5 -3.88446393E-06                    1_GWF-(1,26543)  2.70534326E-08                    1_GWF-(1,10960)
        356          8          6 -2.71844691E-06                    1_GWF-(1,26588)  3.07003428E-08                    1_GWF-(1,10966)
        357          8          7 -2.46416910E-06                    1_GWF-(1,26217)  1.45463852E-08                    1_GWF-(1,11043)
        358          8          8  1.78039522E-06                    1_GWF-(1,26649)  1.92994629E-08                    1_GWF-(1,11200)
        359          8          9  2.09376257E-06                    1_GWF-(1,26486) -1.50639660E-08                    1_GWF-(1,11200)
        360          8         10  2.77034113E-06                    1_GWF-(1,26665)  1.87694517E-08                    1_GWF-(1,14801)
        361          8         11 -2.66033327E-06                    1_GWF-(1,26665)  1.47527120E-08                    1_GWF-(1,11200)
        362          8         12  1.47045944E-06                    1_GWF-(1,26218) -1.13557610E-08                    1_GWF-(1,10968)
        363          8         13  1.46436181E-06                    1_GWF-(1,26589)  1.52495198E-08                    1_GWF-(1,14801)
        364          8         14  1.85580110E-06                    1_GWF-(1,26588)  1.94454386E-08                    1_GWF-(1,14800)
        365          8         15 -2.37808097E-06                    1_GWF-(1,26588)  1.21771386E-08                    1_GWF-(1,14801)
        366          8         16 -1.75375290E-06                    1_GWF-(1,26543)  8.89101526E-09                    1_GWF-(1,14814)
        367          8         17  1.26797146E-06                    1_GWF-(1,26543) -1.23434074E-08                    1_GWF-(1,10961)
        368          8         18  9.31467224E-07                    1_GWF-(1,26588) -1.92471966E-08                    1_GWF-(1,10966)
        369          9          1  7.51468073E-07                    1_GWF-(1,26486)  1.45707872E-08                    1_GWF-(1,14800)
 --------------------------------------------------------------------------------------------------------------------------------------


 UBDSV1 SAVING     FLOW-JA-FACE ON UNIT   1020 AT TIME STEP      1, STRESS PERIOD      1
 UBDSV06 SAVING       DATA-SPDIS IN MODEL ML               PACKAGE NPF             CONNECTED TO MODEL ML               PACKAGE NPF              ON UNIT   1020 AT TIME STEP      1, STRESS PERIOD      1
 UBDSV06 SAVING              WEL IN MODEL ML               PACKAGE ML              CONNECTED TO MODEL ML               PACKAGE WEL_0            ON UNIT   1020 AT TIME STEP      1, STRESS PERIOD      1
 UBDSV06 SAVING              DRN IN MODEL ML               PACKAGE ML              CONNECTED TO MODEL ML               PACKAGE DRN_0            ON UNIT   1020 AT TIME STEP      1, STRESS PERIOD      1
 UBDSV06 SAVING              RIV IN MODEL ML               PACKAGE ML              CONNECTED TO MODEL ML               PACKAGE RIV_0            ON UNIT   1020 AT TIME STEP      1, STRESS PERIOD      1
 UBDSV06 SAVING              GHB IN MODEL ML               PACKAGE ML              CONNECTED TO MODEL ML               PACKAGE GHB_0            ON UNIT   1020 AT TIME STEP      1, STRESS PERIOD      1
 UBDSV06 SAVING              RCH IN MODEL ML               PACKAGE ML              CONNECTED TO MODEL ML               PACKAGE RCHA_0           ON UNIT   1020 AT TIME STEP      1, STRESS PERIOD      1

 HEAD WILL BE SAVED ON UNIT 1021 AT END OF TIME STEP    1, STRESS PERIOD    1


  VOLUME BUDGET FOR ENTIRE MODEL AT END OF TIME STEP    1, STRESS PERIOD   1
  ---------------------------------------------------------------------------------------------------

     CUMULATIVE VOLUME      L**3       RATES FOR THIS TIME STEP      L**3/T          PACKAGE NAME    
     ------------------                 ------------------------                     ----------------

           IN:                                      IN:
           ---                                      ---
                 WEL =           0.0000                   WEL =           0.0000     WEL_0           
                 DRN =           0.0000                   DRN =           0.0000     DRN_0           
                 RIV =           7.7645                   RIV =           0.7765     RIV_0           
                 GHB =          11.3743                   GHB =           1.1374     GHB_0           
                 RCH =           8.2636                   RCH =           0.8264     RCHA_0          

            TOTAL IN =          27.4024              TOTAL IN =           2.7402

          OUT:                                     OUT:
          ----                                     ----
                 WEL =           0.8421                   WEL =       8.4206E-02     WEL_0           
                 DRN =           2.1009                   DRN =           0.2101     DRN_0           
                 RIV =          23.2457                   RIV =           2.3246     RIV_0           
                 GHB =           1.2138                   GHB =           0.1214     GHB_0           
                 RCH =           0.0000                   RCH =           0.0000     RCHA_0          

           TOTAL OUT =          27.4024             TOTAL OUT =           2.7402

            IN - OUT =      -6.3783E-06              IN - OUT =      -6.3783E-07

 PERCENT DISCREPANCY =          -0.00     PERCENT DISCREPANCY =          -0.00




         TIME SUMMARY AT END OF TIME STEP    1 IN STRESS PERIOD    1
                    SECONDS     MINUTES      HOURS       DAYS        YEARS
                    -----------------------------------------------------------
   TIME STEP LENGTH  10.000     0.16667     2.77778E-03 1.15741E-04 3.16881E-07
 STRESS PERIOD TIME  10.000     0.16667     2.77778E-03 1.15741E-04 3.16881E-07
         TOTAL TIME  10.000     0.16667     2.77778E-03 1.15741E-04 3.16881E-07


end timestep

