                                   MODFLOW 6
                U.S. GEOLOGICAL SURVEY MODULAR HYDROLOGIC MODEL
                            VERSION 6.2.2 07/30/2021

   MODFLOW 6 compiled Jul 31 2021 14:22:53 with IFORT compiler (ver. 19.10.3)

This software has been approved for release by the U.S. Geological 
Survey (USGS). Although the software has been subjected to rigorous 
review, the USGS reserves the right to update the software as needed 
pursuant to further analysis and review. No warranty, expressed or 
implied, is made by the USGS or the U.S. Government as to the 
functionality of the software and related material nor shall the 
fact of release constitute any such warranty. Furthermore, the 
software is released on condition that neither the USGS nor the U.S. 
Government shall be held liable for any damages resulting from its 
authorized or unauthorized use. Also refer to the USGS Water 
Resources Software User Rights Notice for complete use, copyright, 
and distribution information.


System command used to initiate simulation:
mf6

MODFLOW was compiled using uniform precision.

Real Variables
  KIND: 8
  TINY (smallest non-zero value):    2.225074-308
  HUGE (largest value):    1.797693+308
  PRECISION: 15
  BIT SIZE: 64

Integer Variables
  KIND: 4
  HUGE (largest value): 2147483647
  BIT SIZE: 32

Long Integer Variables
  KIND: 8
  HUGE (largest value): 9223372036854775807
  BIT SIZE: 64

Logical Variables
  KIND: 4
  BIT SIZE: 32
 

 OPENED mfsim.nam
 FILE TYPE:NAM   UNIT 1001   STATUS:OLD                 
 FORMAT:FORMATTED              ACCESS:SEQUENTIAL          
 ACTION:READ                

 # File generated by Flopy version 3.3.5 on 04/28/2022 at 15:58:45.

 READING SIMULATION OPTIONS
 END OF SIMULATION OPTIONS

 READING SIMULATION TIMING

 OPENED mfsim.tdis
 FILE TYPE:TDIS   UNIT 1002   STATUS:OLD                 
 FORMAT:FORMATTED              ACCESS:SEQUENTIAL          
 ACTION:READ                


 TDIS -- TEMPORAL DISCRETIZATION PACKAGE,
 VERSION 1 : 11/13/2014 - INPUT READ FROM UNIT 1002
 # File generated by Flopy version 3.3.5 on 04/28/2022 at 15:58:45.
 PROCESSING TDIS OPTIONS
    SIMULATION TIME UNIT IS SECONDS
 END OF TDIS OPTIONS
 PROCESSING TDIS DIMENSIONS
    1 STRESS PERIOD(S) IN SIMULATION
 END OF TDIS DIMENSIONS
 PROCESSING TDIS PERIODDATA


 STRESS PERIOD     LENGTH       TIME STEPS     MULTIPLIER FOR DELT
 ----------------------------------------------------------------------------
        1         3.000000          1                    1.000
 END OF TDIS PERIODDATA
 END OF SIMULATION TIMING

 READING SIMULATION MODELS
    GWF6 model ML will be created as model 1
 END OF SIMULATION MODELS

 READING SIMULATION EXCHANGES
 END OF SIMULATION EXCHANGES

 READING SOLUTIONGROUP

 Creating solution: SLN_1           

 OPENED mfsim.ims
 FILE TYPE:IMS   UNIT 1015   STATUS:OLD                 
 FORMAT:FORMATTED              ACCESS:SEQUENTIAL          
 ACTION:READ                

 END OF SIMULATION SOLUTIONGROUP

 IMS -- ITERATIVE MODEL SOLUTION PACKAGE, VERSION 6, 4/28/2017
         INPUT READ FROM UNIT 1015
 # File generated by Flopy version 3.3.5 on 04/28/2022 at 15:58:45.

 PROCESSING IMS OPTIONS
 END OF IMS OPTIONS

 PROCESSING IMS NONLINEAR
 END OF IMS NONLINEAR DATA
 ***UNDER-RELAXATION WILL NOT BE USED***
 
 ***IMS LINEAR SOLVER WILL BE USED***

 IMSLINEAR -- UNSTRUCTURED LINEAR SOLUTION PACKAGE, VERSION 8, 04/28/2017

 PROCESSING LINEAR DATA
 END OF LINEAR DATA
 
 OUTER ITERATION CONVERGENCE CRITERION    (DVCLOSE) =    0.100000E-04
 MAXIMUM NUMBER OF OUTER ITERATIONS        (MXITER) = 100
 SOLVER PRINTOUT INDEX                     (IPRIMS) = 2
 NONLINEAR ITERATION METHOD            (NONLINMETH) = 0
 LINEAR SOLUTION METHOD                   (LINMETH) = 1

       SOLUTION BY THE        CONJUGATE-GRADIENT       METHOD
 ------------------------------------------------------------------
 MAXIMUM OF 100 CALLS OF SOLUTION ROUTINE
 MAXIMUM OF 50 INTERNAL ITERATIONS PER CALL TO SOLUTION ROUTINE
 LINEAR ACCELERATION METHOD            = CG        
 MATRIX PRECONDITIONING TYPE           = INCOMPLETE LU       
 MATRIX SCALING APPROACH               = NO SCALING          
 MATRIX REORDERING APPROACH            = ORIGINAL ORDERING        
 NUMBER OF ORTHOGONALIZATIONS          = 0
 HEAD CHANGE CRITERION FOR CLOSURE     =    0.10000E-05
 RESIDUAL CHANGE CRITERION FOR CLOSURE =    0.10000E-04
 RESIDUAL CONVERGENCE OPTION           = 1
 RESIDUAL CONVERGENCE NORM             = INFINITY NORM S 
 RELAXATION FACTOR                     =    0.00000E+00



 
    Solving:  Stress period:     1    Time step:     1
 
1
                            STRESS PERIOD NO. 1, LENGTH =   3.000000    
                            -----------------------------------------------
                            NUMBER OF TIME STEPS = 1
                            MULTIPLIER FOR DELT =     1.000
                            INITIAL TIME STEP SIZE =   3.000000    

 SLN_1 OUTER ITERATION SUMMARY
 ----------------------------------------------------------------------------------------------------------
                                OUTER      INNER                    STEP   MAXIMUM CHANGE MODEL-(CELLID) OR
 OUTER ITERATION STEP       ITERATION  ITERATION  MAXIMUM CHANGE SUCCESS             MODEL-PACKAGE-(NUMBER)
 ----------------------------------------------------------------------------------------------------------
 Model                              1         50       44.151565                            1_GWF-(1,26519)
 Model                              2         50      -39.187926                            1_GWF-(1,26519)
 Model                              3         50     -0.94847451                            1_GWF-(1,21057)
 Model                              4         50      0.30773170                            1_GWF-(1,25264)
 Model                              5         50 -4.89335915E-02                            1_GWF-(1,25412)
 Model                              6         50  2.00733497E-02                            1_GWF-(1,25265)
 Model                              7         50 -3.44443202E-03                            1_GWF-(1,25412)
 Model                              8         50  1.30585579E-03                            1_GWF-(1,25265)
 Model                              9         50 -2.34747408E-04                            1_GWF-(1,25412)
 Model                             10         50  9.19468778E-05                            1_GWF-(1,25265)
 Model                             11         45 -1.67968447E-05                            1_GWF-(1,25419)
 Model                             12          1  7.15074952E-07       *                    1_GWF-(1,26422)
 ----------------------------------------------------------------------------------------------------------


 12 CALLS TO NUMERICAL SOLUTION IN TIME STEP 1 STRESS PERIOD 1
 546 TOTAL ITERATIONS

 SLN_1 INNER ITERATION SUMMARY
 --------------------------------------------------------------------------------------------------------------------------------------
      TOTAL      OUTER      INNER                                                            MAXIMUM                                   
  ITERATION  ITERATION  ITERATION  MAXIMUM CHANGE      MAXIMUM CHANGE MODEL-(CELLID)        RESIDUAL    MAXIMUM RESIDUAL MODEL-(CELLID)
 --------------------------------------------------------------------------------------------------------------------------------------
          1          1          1      -11.850827                    1_GWF-(1,12785)      0.15902122                    1_GWF-(1,11171)
          2          1          2       7.7957789                    1_GWF-(1,26516)      0.21849746                    1_GWF-(1,10969)
          3          1          3       9.4384592                    1_GWF-(1,26565)      0.20941845                    1_GWF-(1,10968)
          4          1          4       8.7049098                    1_GWF-(1,26510)      0.18707478                    1_GWF-(1,10955)
          5          1          5       6.7456344                    1_GWF-(1,26647)      0.18288963                    1_GWF-(1,10869)
          6          1          6       7.1539035                    1_GWF-(1,26649)      0.14796912                    1_GWF-(1,11140)
          7          1          7       5.5240259                    1_GWF-(1,26622)      0.19728369                    1_GWF-(1,10969)
          8          1          8       4.4971781                    1_GWF-(1,26665)      0.15988077                    1_GWF-(1,10963)
          9          1          9       3.8513472                    1_GWF-(1,26647)      0.16261139                    1_GWF-(1,10956)
         10          1         10       4.5114499                    1_GWF-(1,26665)      0.16089624                    1_GWF-(1,10869)
         11          1         11       4.1439347                    1_GWF-(1,26544)      0.13973153                    1_GWF-(1,10969)
         12          1         12       3.0384650                    1_GWF-(1,26486)      0.13956574                    1_GWF-(1,10966)
         13          1         13       2.9612289                    1_GWF-(1,26622)      0.13071189                    1_GWF-(1,10962)
         14          1         14       2.4422687                    1_GWF-(1,26623)      0.12449687                    1_GWF-(1,10969)
         15          1         15       2.2914161                    1_GWF-(1,26622)      0.14150399                    1_GWF-(1,10968)
         16          1         16       1.5197609                    1_GWF-(1,26623)      0.12964033                    1_GWF-(1,10961)
         17          1         17      -1.5701680                    1_GWF-(1,26623)      0.13237390                    1_GWF-(1,10958)
         18          1         18       2.4567577                    1_GWF-(1,26588)      0.14289161                    1_GWF-(1,10969)
         19          1         19      -3.3667828                    1_GWF-(1,26588)      0.13915737                    1_GWF-(1,10968)
         20          1         20      -3.1539152                    1_GWF-(1,26543)      0.12845026                    1_GWF-(1,10963)
         21          1         21      -2.7044156                    1_GWF-(1,26544)      0.11770503                    1_GWF-(1,10958)
         22          1         22      -3.4927856                    1_GWF-(1,26486)      0.12771631                    1_GWF-(1,10969)
         23          1         23      -3.9373022                    1_GWF-(1,26487)      0.11175898                    1_GWF-(1,10965)
         24          1         24      -4.2122567                    1_GWF-(1,26486)      0.12084521                    1_GWF-(1,10963)
         25          1         25      -3.3513132                    1_GWF-(1,26487)      0.10513075                    1_GWF-(1,10955)
         26          1         26      -2.2496168                    1_GWF-(1,26588)  9.10330449E-02                    1_GWF-(1,10869)
         27          1         27       2.1914462                    1_GWF-(1,26420)      0.11202206                    1_GWF-(1,10965)
         28          1         28       1.8049485                    1_GWF-(1,26487)      0.11181929                    1_GWF-(1,10957)
         29          1         29       1.7760305                    1_GWF-(1,26420)      0.10106385                    1_GWF-(1,10872)
         30          1         30       1.9074186                    1_GWF-(1,26422)      0.10134181                    1_GWF-(1,10965)
         31          1         31       2.1701453                    1_GWF-(1,26350)      0.11391157                    1_GWF-(1,10960)
         32          1         32       2.5004458                    1_GWF-(1,26422)  9.59472201E-02                    1_GWF-(1,10958)
         33          1         33       2.4284451                    1_GWF-(1,26350) -7.54712591E-02                    1_GWF-(1,10960)
         34          1         34       2.3491659                    1_GWF-(1,26422)  6.47380146E-02                    1_GWF-(1,10966)
         35          1         35      -2.0035109                    1_GWF-(1,26422)  7.08974052E-02                    1_GWF-(1,10958)
         36          1         36      -1.5236625                    1_GWF-(1,26350)  6.08330664E-02                    1_GWF-(1,10968)
         37          1         37      -1.2150320                    1_GWF-(1,26422)  4.63219990E-02                    1_GWF-(1,10961)
         38          1         38     -0.93031386                    1_GWF-(1,24901) -5.16260110E-02                    1_GWF-(1,10967)
         39          1         39     -0.85965191                    1_GWF-(1,24895)  4.69618372E-02                    1_GWF-(1,10968)
         40          1         40      -1.0500040                    1_GWF-(1,26648)  4.33611832E-02                    1_GWF-(1,10961)
         41          1         41      -1.3749573                    1_GWF-(1,26649)  4.69169713E-02                    1_GWF-(1,10963)
         42          1         42      -1.4729389                    1_GWF-(1,26648) -4.44624469E-02                    1_GWF-(1,10991)
         43          1         43      -1.2874157                    1_GWF-(1,26586) -5.73147051E-02                    1_GWF-(1,11138)
         44          1         44      -1.1516029                    1_GWF-(1,26623)  4.36581748E-02                    1_GWF-(1,11140)
         45          1         45      0.96856452                    1_GWF-(1,26218) -5.17665886E-02                    1_GWF-(1,11140)
         46          1         46     -0.85136183                    1_GWF-(1,25057) -4.60909391E-02                    1_GWF-(1,11138)
         47          1         47      -1.1425485                    1_GWF-(1,26217)  4.74451995E-02                    1_GWF-(1,11139)
         48          1         48      -1.4746528                    1_GWF-(1,26218)  4.89034885E-02                    1_GWF-(1,14868)
         49          1         49      -1.5219212                    1_GWF-(1,26217) -4.87507836E-02                    1_GWF-(1,10990)
         50          1         50      -1.4015951                    1_GWF-(1,26218)  4.45193024E-02                    1_GWF-(1,14868)
         51          2          1      -40.871643                    1_GWF-(1,26519)     -0.14115449                    1_GWF-(1,26519)
         52          2          2      -15.796973                    1_GWF-(1,26513) -4.44821228E-02                    1_GWF-(1,26516)
         53          2          3      -7.5314664                    1_GWF-(1,26637)  3.50366693E-02                    1_GWF-(1,26516)
         54          2          4      -9.1681002                    1_GWF-(1,26665)  3.57407854E-02                    1_GWF-(1,14868)
         55          2          5      -4.8440131                    1_GWF-(1,26622)  2.89568865E-02                    1_GWF-(1,14869)
         56          2          6      -4.6473058                    1_GWF-(1,26589)  4.32191986E-02                    1_GWF-(1,14868)
         57          2          7      -3.7539142                    1_GWF-(1,26543)  4.02094531E-02                    1_GWF-(1,14869)
         58          2          8      -3.4865180                    1_GWF-(1,26486)  6.51051759E-02                    1_GWF-(1,14868)
         59          2          9      -2.3525081                    1_GWF-(1,26487)  4.24866819E-02                    1_GWF-(1,14869)
         60          2         10      -2.2237832                    1_GWF-(1,26350)  4.16456039E-02                    1_GWF-(1,14868)
         61          2         11      -1.8524303                    1_GWF-(1,26348)  1.12448906E-02                    1_GWF-(1,14868)
         62          2         12      -1.6174490                    1_GWF-(1,26217)  2.41300643E-02                    1_GWF-(1,14869)
         63          2         13      -1.0363739                    1_GWF-(1,26218)  3.75681655E-02                    1_GWF-(1,14868)
         64          2         14     -0.68128858                    1_GWF-(1,26649)  3.04525831E-02                    1_GWF-(1,14869)
         65          2         15     -0.72315033                    1_GWF-(1,26622)  2.61755959E-02                    1_GWF-(1,14868)
         66          2         16      0.87624468                    1_GWF-(1,26420)  2.54836808E-02                    1_GWF-(1,14868)
         67          2         17       1.1534319                    1_GWF-(1,26218)  2.85350056E-02                    1_GWF-(1,14869)
         68          2         18      0.95583998                    1_GWF-(1,26217)  3.98440484E-02                    1_GWF-(1,14868)
         69          2         19      0.83685003                    1_GWF-(1,26218)  2.54923792E-02                    1_GWF-(1,14869)
         70          2         20      0.65118417                    1_GWF-(1,26543)  2.35219675E-02                    1_GWF-(1,14868)
         71          2         21      0.92677486                    1_GWF-(1,26588)  1.57225098E-02                    1_GWF-(1,14868)
         72          2         22      0.97673645                    1_GWF-(1,26543)  2.49043733E-02                    1_GWF-(1,14869)
         73          2         23     -0.60559471                    1_GWF-(1,26218)  4.54414776E-02                    1_GWF-(1,14868)
         74          2         24     -0.80815150                    1_GWF-(1,26487)  3.63241447E-02                    1_GWF-(1,14869)
         75          2         25      -1.1074636                    1_GWF-(1,26486)  3.67382861E-02                    1_GWF-(1,14868)
         76          2         26      -1.1064071                    1_GWF-(1,26487)  1.25933825E-02                    1_GWF-(1,14868)
         77          2         27     -0.71605165                    1_GWF-(1,26588)  2.82365051E-02                    1_GWF-(1,14869)
         78          2         28     -0.35060575                    1_GWF-(1,26398)  4.78269635E-02                    1_GWF-(1,14868)
         79          2         29     -0.39639000                    1_GWF-(1,26327)  4.43777665E-02                    1_GWF-(1,14869)
         80          2         30      0.36325998                    1_GWF-(1,26420)  6.83528836E-02                    1_GWF-(1,14868)
         81          2         31     -0.26418771                    1_GWF-(1,26175)  6.26053637E-02                    1_GWF-(1,14869)
         82          2         32     -0.27219275                    1_GWF-(1,26674)  9.46566769E-02                    1_GWF-(1,14868)
         83          2         33     -0.24857664                    1_GWF-(1,26350) -7.87491189E-02                    1_GWF-(1,14868)
         84          2         34     -0.20257958                    1_GWF-(1,25803)      0.10197455                    1_GWF-(1,14868)
         85          2         35      0.32345692                    1_GWF-(1,26422)  6.89721930E-02                    1_GWF-(1,14869)
         86          2         36      0.27375978                    1_GWF-(1,26350)  7.19512230E-02                    1_GWF-(1,14868)
         87          2         37      0.20779167                    1_GWF-(1,26422)  3.96337751E-02                    1_GWF-(1,14869)
         88          2         38      0.21002136                    1_GWF-(1,26544)  3.00440471E-02                    1_GWF-(1,14868)
         89          2         39     -0.21935058                    1_GWF-(1,26649)  2.90907046E-02                    1_GWF-(1,14868)
         90          2         40     -0.30794342                    1_GWF-(1,26486)  5.23817102E-02                    1_GWF-(1,14869)
         91          2         41      0.23985757                    1_GWF-(1,26422)  9.76693756E-02                    1_GWF-(1,14868)
         92          2         42     -0.24644151                    1_GWF-(1,26421)     -0.11382172                    1_GWF-(1,14868)
         93          2         43     -0.36767008                    1_GWF-(1,26350)      0.14159274                    1_GWF-(1,14868)
         94          2         44     -0.22486359                    1_GWF-(1,26486)     -0.12796548                    1_GWF-(1,14868)
         95          2         45     -0.26536985                    1_GWF-(1,26420)      0.13349543                    1_GWF-(1,14868)
         96          2         46     -0.17599210                    1_GWF-(1,26421) -9.52918329E-02                    1_GWF-(1,14868)
         97          2         47     -0.24952335                    1_GWF-(1,26350)  8.19624691E-02                    1_GWF-(1,14868)
         98          2         48     -0.17461566                    1_GWF-(1,26664) -5.57675885E-02                    1_GWF-(1,14868)
         99          2         49     -0.16428159                    1_GWF-(1,26649)  5.61768150E-02                    1_GWF-(1,14868)
        100          2         50     -0.19757712                    1_GWF-(1,26623) -4.17542197E-02                    1_GWF-(1,14868)
        101          3          1     -0.22572161                    1_GWF-(1,16215)  2.63945477E-02                    1_GWF-(1,14868)
        102          3          2      0.17137977                    1_GWF-(1,26586) -5.47719439E-02                    1_GWF-(1,14868)
        103          3          3      0.24035770                    1_GWF-(1,26623)  6.27063003E-02                    1_GWF-(1,14868)
        104          3          4      0.17449335                    1_GWF-(1,26649) -4.75885827E-02                    1_GWF-(1,14868)
        105          3          5     -0.18590700                    1_GWF-(1,16130)  6.27303392E-02                    1_GWF-(1,14868)
        106          3          6      0.16087441                    1_GWF-(1,16130) -6.86200786E-02                    1_GWF-(1,14868)
        107          3          7      0.13162373                    1_GWF-(1,26198)  6.82533762E-02                    1_GWF-(1,14868)
        108          3          8     -0.16550065                    1_GWF-(1,26674) -5.30873450E-02                    1_GWF-(1,14868)
        109          3          9      0.13936146                    1_GWF-(1,16130)  6.15466282E-02                    1_GWF-(1,14868)
        110          3         10      0.13500607                    1_GWF-(1,26350) -4.53140458E-02                    1_GWF-(1,14868)
        111          3         11      0.13451900                    1_GWF-(1,26486)  3.88707967E-02                    1_GWF-(1,14868)
        112          3         12     -0.16140490                    1_GWF-(1,26422)  1.94618996E-02                    1_GWF-(1,14869)
        113          3         13     -0.11631561                    1_GWF-(1,26350)  1.35195585E-02                    1_GWF-(1,14868)
        114          3         14      0.13732585                    1_GWF-(1,26350)  4.68273374E-03                    1_GWF-(1,14867)
        115          3         15     -0.12673943                    1_GWF-(1,26350)  1.11519582E-02                    1_GWF-(1,14869)
        116          3         16     -0.13177845                    1_GWF-(1,26422)  2.41668725E-02                    1_GWF-(1,14868)
        117          3         17      0.10551904                    1_GWF-(1,26422)  2.30281786E-02                    1_GWF-(1,14869)
        118          3         18      0.12201403                    1_GWF-(1,26350)  3.71924415E-02                    1_GWF-(1,14868)
        119          3         19 -8.05012866E-02                    1_GWF-(1,26350) -3.97923393E-02                    1_GWF-(1,14868)
        120          3         20  8.91337992E-02                    1_GWF-(1,26420)  4.76559209E-02                    1_GWF-(1,14868)
        121          3         21 -8.67831474E-02                    1_GWF-(1,26420) -4.21120241E-02                    1_GWF-(1,14868)
        122          3         22     -0.10010286                    1_GWF-(1,25297)  4.44629431E-02                    1_GWF-(1,14868)
        123          3         23     -0.12003598                    1_GWF-(1,25444) -3.34952552E-02                    1_GWF-(1,14868)
        124          3         24      0.12883788                    1_GWF-(1,26588)  2.86912184E-02                    1_GWF-(1,14868)
        125          3         25      0.16616543                    1_GWF-(1,26487)  8.54510431E-03                    1_GWF-(1,14869)
        126          3         26      0.19861814                    1_GWF-(1,26420)  9.82002421E-03                    1_GWF-(1,14869)
        127          3         27      0.21741058                    1_GWF-(1,26487)  2.26304241E-02                    1_GWF-(1,14868)
        128          3         28     -0.13994541                    1_GWF-(1,26487) -1.70263351E-02                    1_GWF-(1,14868)
        129          3         29     -0.16497209                    1_GWF-(1,26486)  1.60086880E-02                    1_GWF-(1,14868)
        130          3         30     -0.15560184                    1_GWF-(1,26588)  3.70343229E-03                    1_GWF-(1,14869)
        131          3         31     -0.15252380                    1_GWF-(1,26543)  5.20837757E-03                    1_GWF-(1,14869)
        132          3         32     -0.15023767                    1_GWF-(1,26588)  1.18886010E-02                    1_GWF-(1,14868)
        133          3         33      0.11908982                    1_GWF-(1,26588)  9.25552769E-03                    1_GWF-(1,14869)
        134          3         34  9.04622419E-02                    1_GWF-(1,26543)  1.04694565E-02                    1_GWF-(1,14868)
        135          3         35     -0.12004116                    1_GWF-(1,26665)  3.02844044E-03                    1_GWF-(1,14869)
        136          3         36      0.10921474                    1_GWF-(1,26665)  2.97800106E-03                    1_GWF-(1,14869)
        137          3         37      0.12905307                    1_GWF-(1,26666)  6.22646203E-03                    1_GWF-(1,14868)
        138          3         38      0.13441555                    1_GWF-(1,26622) -4.98271614E-03                    1_GWF-(1,14868)
        139          3         39  9.74625539E-02                    1_GWF-(1,26217)  4.36695858E-03                    1_GWF-(1,14868)
        140          3         40     -0.13880214                    1_GWF-(1,26665)  1.70261664E-03                    1_GWF-(1,14782)
        141          3         41      0.13573417                    1_GWF-(1,26665) -2.93537255E-03                    1_GWF-(1,14868)
        142          3         42     -0.15558005                    1_GWF-(1,26665)  5.21037800E-03                    1_GWF-(1,14868)
        143          3         43     -0.13830827                    1_GWF-(1,26666) -5.07198733E-03                    1_GWF-(1,14868)
        144          3         44      0.12767959                    1_GWF-(1,26543)  5.34455524E-03                    1_GWF-(1,14868)
        145          3         45      0.14841083                    1_GWF-(1,26649)  3.76319422E-03                    1_GWF-(1,14782)
        146          3         46      0.15235498                    1_GWF-(1,26648)  5.65923099E-03                    1_GWF-(1,14867)
        147          3         47  9.24194451E-02                    1_GWF-(1,26664) -4.61438480E-03                    1_GWF-(1,14867)
        148          3         48  9.53264667E-02                    1_GWF-(1,26217)  4.28427727E-03                    1_GWF-(1,14867)
        149          3         49     -0.10606616                    1_GWF-(1,26648) -5.00840331E-03                    1_GWF-(1,14867)
        150          3         50     -0.10760175                    1_GWF-(1,26218)  4.37192577E-03                    1_GWF-(1,14867)
        151          4          1 -6.97924295E-02                    1_GWF-(1,26217) -3.30988394E-03                    1_GWF-(1,14867)
        152          4          2 -7.14170147E-02                    1_GWF-(1,26218)  3.33585270E-03                    1_GWF-(1,14867)
        153          4          3 -7.75941179E-02                    1_GWF-(1,26217)  2.53524024E-03                    1_GWF-(1,14782)
        154          4          4 -7.77277939E-02                    1_GWF-(1,26218)  3.11739589E-03                    1_GWF-(1,14867)
        155          4          5 -5.65124575E-02                    1_GWF-(1,26422)  2.00025531E-03                    1_GWF-(1,14782)
        156          4          6 -5.06763434E-02                    1_GWF-(1,26218)  2.05104452E-03                    1_GWF-(1,14868)
        157          4          7 -3.91171628E-02                    1_GWF-(1,26485) -1.71914336E-03                    1_GWF-(1,14868)
        158          4          8 -5.41750494E-02                    1_GWF-(1,26665)  1.93986586E-03                    1_GWF-(1,14868)
        159          4          9 -6.46081006E-02                    1_GWF-(1,26666) -1.77482554E-03                    1_GWF-(1,14868)
        160          4         10 -6.32002133E-02                    1_GWF-(1,26665) -1.13918022E-03                    1_GWF-(1,14867)
        161          4         11  6.48362575E-02                    1_GWF-(1,26665)  5.79549448E-04                    1_GWF-(1,10957)
        162          4         12  3.99351399E-02                    1_GWF-(1,26622) -1.23314009E-03                    1_GWF-(1,14868)
        163          4         13  3.99085657E-02                    1_GWF-(1,26623)  1.74961815E-03                    1_GWF-(1,14868)
        164          4         14  5.38109040E-02                    1_GWF-(1,26622)  1.23579547E-03                    1_GWF-(1,14869)
        165          4         15  4.57607612E-02                    1_GWF-(1,26623)  7.33909319E-04                    1_GWF-(1,14782)
        166          4         16  3.67728100E-02                    1_GWF-(1,26665)  1.06544695E-03                    1_GWF-(1,14868)
        167          4         17  2.67022395E-02                    1_GWF-(1,26588) -1.38953070E-03                    1_GWF-(1,14868)
        168          4         18  2.15455992E-02                    1_GWF-(1,26543)  1.60150399E-03                    1_GWF-(1,14868)
        169          4         19 -2.58810911E-02                    1_GWF-(1,26543) -1.54567504E-03                    1_GWF-(1,14868)
        170          4         20 -3.54339051E-02                    1_GWF-(1,26588)  7.03503070E-04                    1_GWF-(1,14868)
        171          4         21 -3.44509764E-02                    1_GWF-(1,26543)  1.14437694E-03                    1_GWF-(1,14868)
        172          4         22 -2.54344053E-02                    1_GWF-(1,26588)  1.87153318E-03                    1_GWF-(1,14869)
        173          4         23 -3.25528748E-02                    1_GWF-(1,26486)  2.89596668E-03                    1_GWF-(1,14868)
        174          4         24 -3.75635386E-02                    1_GWF-(1,26487)  2.07186445E-03                    1_GWF-(1,14869)
        175          4         25 -3.20993588E-02                    1_GWF-(1,26420)  9.63042449E-04                    1_GWF-(1,14868)
        176          4         26 -2.72156648E-02                    1_GWF-(1,26487)  1.77498268E-03                    1_GWF-(1,14868)
        177          4         27 -2.01858257E-02                    1_GWF-(1,26420) -2.89236129E-03                    1_GWF-(1,14868)
        178          4         28 -1.35838670E-02                    1_GWF-(1,26421)  4.71242716E-03                    1_GWF-(1,14868)
        179          4         29  1.22620055E-02                    1_GWF-(1,26543) -5.03942833E-03                    1_GWF-(1,14868)
        180          4         30  1.46440609E-02                    1_GWF-(1,26420)  5.78118535E-03                    1_GWF-(1,14868)
        181          4         31  2.06230792E-02                    1_GWF-(1,26422) -4.84475647E-03                    1_GWF-(1,14868)
        182          4         32  2.04679063E-02                    1_GWF-(1,26350)  5.72274865E-03                    1_GWF-(1,14868)
        183          4         33  1.98744532E-02                    1_GWF-(1,26421)  3.82542558E-03                    1_GWF-(1,14869)
        184          4         34  1.91954741E-02                    1_GWF-(1,26350)  4.19508481E-03                    1_GWF-(1,14868)
        185          4         35  1.99237312E-02                    1_GWF-(1,26422)  2.15471800E-03                    1_GWF-(1,14869)
        186          4         36  1.14191484E-02                    1_GWF-(1,26350)  1.87560183E-03                    1_GWF-(1,14867)
        187          4         37 -1.79473033E-02                    1_GWF-(1,26350)  1.60230536E-03                    1_GWF-(1,14782)
        188          4         38 -1.60759809E-02                    1_GWF-(1,26422)  2.06806696E-03                    1_GWF-(1,14867)
        189          4         39 -1.52642891E-02                    1_GWF-(1,26544)  2.30889247E-03                    1_GWF-(1,14868)
        190          4         40 -1.60841768E-02                    1_GWF-(1,26486)  2.33909638E-03                    1_GWF-(1,14869)
        191          4         41 -1.27982465E-02                    1_GWF-(1,26350)  3.26216507E-03                    1_GWF-(1,14868)
        192          4         42 -9.97720431E-03                    1_GWF-(1,26422) -2.96910550E-03                    1_GWF-(1,14868)
        193          4         43 -9.47443544E-03                    1_GWF-(1,26544)  3.59224125E-03                    1_GWF-(1,14868)
        194          4         44 -7.41463857E-03                    1_GWF-(1,26486) -3.17055799E-03                    1_GWF-(1,14868)
        195          4         45 -6.62477622E-03                    1_GWF-(1,16130)  3.46582547E-03                    1_GWF-(1,14868)
        196          4         46  7.03699358E-03                    1_GWF-(1,16130) -3.25538027E-03                    1_GWF-(1,14868)
        197          4         47  9.26877638E-03                    1_GWF-(1,26672)  3.70115219E-03                    1_GWF-(1,14868)
        198          4         48 -6.45355437E-03                    1_GWF-(1,25755) -3.50735104E-03                    1_GWF-(1,14868)
        199          4         49  7.96905932E-03                    1_GWF-(1,26623)  2.48749831E-03                    1_GWF-(1,14868)
        200          4         50  8.31324861E-03                    1_GWF-(1,26326) -2.50725001E-03                    1_GWF-(1,14868)
        201          5          1 -9.91257564E-03                    1_GWF-(1,11933)  1.92567281E-03                    1_GWF-(1,14868)
        202          5          2  5.26569099E-03                    1_GWF-(1,26673) -2.57093513E-03                    1_GWF-(1,14868)
        203          5          3 -5.77948063E-03                    1_GWF-(1,26673)  2.58565037E-03                    1_GWF-(1,14868)
        204          5          4 -6.07636829E-03                    1_GWF-(1,26672) -2.50846399E-03                    1_GWF-(1,14868)
        205          5          5  5.32210165E-03                    1_GWF-(1,26422)  2.53773739E-03                    1_GWF-(1,14868)
        206          5          6 -3.74889593E-03                    1_GWF-(1,20231) -2.43639943E-03                    1_GWF-(1,14868)
        207          5          7 -5.20308524E-03                    1_GWF-(1,26350)  2.78124167E-03                    1_GWF-(1,14868)
        208          5          8 -6.26963579E-03                    1_GWF-(1,26422) -2.42775175E-03                    1_GWF-(1,14868)
        209          5          9  3.95342933E-03                    1_GWF-(1,26588)  2.51321526E-03                    1_GWF-(1,14868)
        210          5         10  5.30643135E-03                    1_GWF-(1,26350) -1.76224163E-03                    1_GWF-(1,14868)
        211          5         11  7.19546717E-03                    1_GWF-(1,26486)  1.72648029E-03                    1_GWF-(1,14868)
        212          5         12 -6.91873223E-03                    1_GWF-(1,26422)  9.63668695E-04                    1_GWF-(1,14869)
        213          5         13  8.37033125E-03                    1_GWF-(1,26422)  6.11938262E-04                    1_GWF-(1,14782)
        214          5         14  8.78895288E-03                    1_GWF-(1,26350)  5.55512134E-04                    1_GWF-(1,14868)
        215          5         15 -7.20484117E-03                    1_GWF-(1,26544)  8.59702994E-04                    1_GWF-(1,14869)
        216          5         16 -8.45239134E-03                    1_GWF-(1,26486)  1.36996494E-03                    1_GWF-(1,14868)
        217          5         17 -8.55817085E-03                    1_GWF-(1,26588)  6.48608121E-04                    1_GWF-(1,14869)
        218          5         18 -7.89714628E-03                    1_GWF-(1,26589)  4.55410160E-04                    1_GWF-(1,14869)
        219          5         19 -8.71335733E-03                    1_GWF-(1,26422)  1.44527823E-03                    1_GWF-(1,14868)
        220          5         20 -9.56090617E-03                    1_GWF-(1,26350) -1.78161971E-03                    1_GWF-(1,14868)
        221          5         21 -6.95502140E-03                    1_GWF-(1,26422)  2.54964092E-03                    1_GWF-(1,14868)
        222          5         22 -4.81902310E-03                    1_GWF-(1,25410) -2.57196875E-03                    1_GWF-(1,14868)
        223          5         23 -5.05116100E-03                    1_GWF-(1,25443)  2.62585960E-03                    1_GWF-(1,14868)
        224          5         24  5.74842707E-03                    1_GWF-(1,26674) -1.94019799E-03                    1_GWF-(1,14868)
        225          5         25  5.30761678E-03                    1_GWF-(1,26487)  1.45205682E-03                    1_GWF-(1,14868)
        226          5         26  6.23007956E-03                    1_GWF-(1,26486)  2.87562447E-04                    1_GWF-(1,14869)
        227          5         27 -7.27985689E-03                    1_GWF-(1,26649)  7.60005111E-04                    1_GWF-(1,14869)
        228          5         28 -7.07495918E-03                    1_GWF-(1,26622)  1.52872000E-03                    1_GWF-(1,14868)
        229          5         29 -4.80261155E-03                    1_GWF-(1,26649) -1.22894646E-03                    1_GWF-(1,14868)
        230          5         30 -4.46858310E-03                    1_GWF-(1,22718)  1.18439683E-03                    1_GWF-(1,14868)
        231          5         31 -3.60691211E-03                    1_GWF-(1,26420) -6.85424689E-04                    1_GWF-(1,14868)
        232          5         32  3.96049646E-03                    1_GWF-(1,26665)  5.70429342E-04                    1_GWF-(1,14868)
        233          5         33  4.12037573E-03                    1_GWF-(1,26647) -3.43770153E-04                    1_GWF-(1,14867)
        234          5         34  5.82898720E-03                    1_GWF-(1,26622)  5.88265572E-04                    1_GWF-(1,14867)
        235          5         35 -7.36562912E-03                    1_GWF-(1,26665)  4.17384321E-04                    1_GWF-(1,14868)
        236          5         36 -5.61718780E-03                    1_GWF-(1,26649)  3.71369101E-04                    1_GWF-(1,14869)
        237          5         37 -4.59795035E-03                    1_GWF-(1,26588)  4.77290435E-04                    1_GWF-(1,14868)
        238          5         38 -4.36131536E-03                    1_GWF-(1,26589) -4.34738944E-04                    1_GWF-(1,14867)
        239          5         39 -5.50183667E-03                    1_GWF-(1,26588)  6.69549429E-04                    1_GWF-(1,14867)
        240          5         40 -5.34242824E-03                    1_GWF-(1,26665) -6.01045722E-04                    1_GWF-(1,14867)
        241          5         41  7.36171650E-03                    1_GWF-(1,26665)  3.05442801E-04                    1_GWF-(1,14867)
        242          5         42  6.56221115E-03                    1_GWF-(1,26588)  3.09922562E-04                    1_GWF-(1,14867)
        243          5         43  5.87934444E-03                    1_GWF-(1,26589) -6.06979020E-04                    1_GWF-(1,14867)
        244          5         44  4.32062460E-03                    1_GWF-(1,26588)  8.50520910E-04                    1_GWF-(1,14867)
        245          5         45  3.41505884E-03                    1_GWF-(1,26665) -9.73474533E-04                    1_GWF-(1,14867)
        246          5         46  2.85252608E-03                    1_GWF-(1,26666)  1.10306860E-03                    1_GWF-(1,14867)
        247          5         47  3.26239126E-03                    1_GWF-(1,26218) -9.57488627E-04                    1_GWF-(1,14867)
        248          5         48  4.13002221E-03                    1_GWF-(1,26217)  9.43889400E-04                    1_GWF-(1,14867)
        249          5         49  3.22462007E-03                    1_GWF-(1,26218) -8.71839153E-04                    1_GWF-(1,14867)
        250          5         50 -2.80227628E-03                    1_GWF-(1,26218)  7.92451044E-04                    1_GWF-(1,14867)
        251          6          1 -8.54078761E-03                    1_GWF-(1,11460) -5.32671886E-04                    1_GWF-(1,14867)
        252          6          2 -3.90657033E-03                    1_GWF-(1,11439)  6.36110122E-04                    1_GWF-(1,14867)
        253          6          3 -3.65617901E-03                    1_GWF-(1,26217) -6.01238433E-04                    1_GWF-(1,14867)
        254          6          4 -3.61810107E-03                    1_GWF-(1,26218)  6.33117906E-04                    1_GWF-(1,14867)
        255          6          5 -2.98794935E-03                    1_GWF-(1,26422) -5.21294665E-04                    1_GWF-(1,14867)
        256          6          6 -2.59658737E-03                    1_GWF-(1,26218)  4.82588151E-04                    1_GWF-(1,14867)
        257          6          7  2.31761650E-03                    1_GWF-(1,11440) -2.65074953E-04                    1_GWF-(1,14867)
        258          6          8 -2.52995714E-03                    1_GWF-(1,26665)  1.46126859E-04                    1_GWF-(1,14868)
        259          6          9 -2.80236924E-03                    1_GWF-(1,26666)  1.45780551E-04                    1_GWF-(1,14867)
        260          6         10 -2.99757010E-03                    1_GWF-(1,26665) -2.09144864E-04                    1_GWF-(1,14867)
        261          6         11  2.87356666E-03                    1_GWF-(1,26665)  1.96762347E-04                    1_GWF-(1,14867)
        262          6         12  2.54532653E-03                    1_GWF-(1,26588)  8.27369821E-05                    1_GWF-(1,14782)
        263          6         13  2.11872209E-03                    1_GWF-(1,26589)  1.35647446E-04                    1_GWF-(1,14868)
        264          6         14  2.05116230E-03                    1_GWF-(1,26588)  1.30942612E-04                    1_GWF-(1,14867)
        265          6         15  1.98295006E-03                    1_GWF-(1,26649)  1.73987156E-04                    1_GWF-(1,14782)
        266          6         16  2.22298120E-03                    1_GWF-(1,26588)  1.67033203E-04                    1_GWF-(1,14867)
        267          6         17  1.91802555E-03                    1_GWF-(1,26543)  4.52015124E-05                    1_GWF-(1,10962)
        268          6         18  1.21835343E-03                    1_GWF-(1,26588)  9.68798282E-05                    1_GWF-(1,14868)
        269          6         19  1.00303009E-03                    1_GWF-(1,24661)  1.32165890E-04                    1_GWF-(1,14867)
        270          6         20  1.09635807E-03                    1_GWF-(1,24664)  2.05067592E-04                    1_GWF-(1,14868)
        271          6         21  1.04716857E-03                    1_GWF-(1,24689)  2.63869608E-04                    1_GWF-(1,14867)
        272          6         22 -1.10416481E-03                    1_GWF-(1,26648)  2.49724993E-04                    1_GWF-(1,14868)
        273          6         23 -1.52873526E-03                    1_GWF-(1,26649)  1.53344283E-04                    1_GWF-(1,14869)
        274          6         24 -1.86746845E-03                    1_GWF-(1,26622)  4.80807993E-05                    1_GWF-(1,14867)
        275          6         25 -1.52360189E-03                    1_GWF-(1,26623)  1.50671552E-04                    1_GWF-(1,14868)
        276          6         26 -1.02508870E-03                    1_GWF-(1,26217)  2.43292326E-04                    1_GWF-(1,14867)
        277          6         27 -9.55656966E-04                    1_GWF-(1,26421)  3.23347140E-04                    1_GWF-(1,14868)
        278          6         28 -9.21100870E-04                    1_GWF-(1,26420) -2.95023956E-04                    1_GWF-(1,14868)
        279          6         29  1.03384457E-03                    1_GWF-(1,26420)  2.93760193E-04                    1_GWF-(1,14868)
        280          6         30  1.19845192E-03                    1_GWF-(1,26487) -1.52471444E-04                    1_GWF-(1,14868)
        281          6         31  1.61101097E-03                    1_GWF-(1,26486)  1.20874682E-04                    1_GWF-(1,14867)
        282          6         32  1.72820595E-03                    1_GWF-(1,26487)  2.19101562E-04                    1_GWF-(1,14868)
        283          6         33  1.46154811E-03                    1_GWF-(1,26486)  2.23265823E-04                    1_GWF-(1,14869)
        284          6         34  9.23310004E-04                    1_GWF-(1,26544)  2.81587966E-04                    1_GWF-(1,14868)
        285          6         35  9.98947466E-04                    1_GWF-(1,26422) -1.77970507E-04                    1_GWF-(1,14868)
        286          6         36  7.76346573E-04                    1_GWF-(1,26350)  1.81979151E-04                    1_GWF-(1,14868)
        287          6         37 -1.21467147E-03                    1_GWF-(1,26350)  1.29425261E-04                    1_GWF-(1,14782)
        288          6         38 -1.17617861E-03                    1_GWF-(1,26422)  1.81088917E-04                    1_GWF-(1,14867)
        289          6         39 -8.05116078E-04                    1_GWF-(1,26350)  1.31452957E-04                    1_GWF-(1,14782)
        290          6         40 -7.39763354E-04                    1_GWF-(1,26486)  1.30957790E-04                    1_GWF-(1,14867)
        291          6         41 -7.02856399E-04                    1_GWF-(1,26350)  1.82515214E-04                    1_GWF-(1,14868)
        292          6         42 -5.20546988E-04                    1_GWF-(1,26422) -1.89789767E-04                    1_GWF-(1,14868)
        293          6         43  5.28656351E-04                    1_GWF-(1,26422)  2.57956021E-04                    1_GWF-(1,14868)
        294          6         44  5.89118352E-04                    1_GWF-(1,26350) -2.31867171E-04                    1_GWF-(1,14868)
        295          6         45  3.28651357E-04                    1_GWF-(1,26486)  2.62515972E-04                    1_GWF-(1,14868)
        296          6         46  3.08168706E-04                    1_GWF-(1,26544) -2.45993365E-04                    1_GWF-(1,14868)
        297          6         47 -3.74318715E-04                    1_GWF-(1,25786)  2.28368348E-04                    1_GWF-(1,14868)
        298          6         48 -3.65461364E-04                    1_GWF-(1,25765) -1.91757405E-04                    1_GWF-(1,14868)
        299          6         49 -3.25354606E-04                    1_GWF-(1,25727)  1.52492305E-04                    1_GWF-(1,14868)
        300          6         50  3.15380302E-04                    1_GWF-(1,26533) -1.46604814E-04                    1_GWF-(1,14868)
        301          7          1 -2.50151904E-04                    1_GWF-(1,16811)  1.48468587E-04                    1_GWF-(1,14868)
        302          7          2 -2.76759694E-04                    1_GWF-(1,26218) -1.62184768E-04                    1_GWF-(1,14868)
        303          7          3 -2.70903360E-04                    1_GWF-(1,26323)  1.72642742E-04                    1_GWF-(1,14868)
        304          7          4  3.41439454E-04                    1_GWF-(1,26217) -1.90265842E-04                    1_GWF-(1,14868)
        305          7          5 -2.99201130E-04                    1_GWF-(1,26544)  2.06324788E-04                    1_GWF-(1,14868)
        306          7          6 -3.21910088E-04                    1_GWF-(1,26486) -1.95986175E-04                    1_GWF-(1,14868)
        307          7          7 -4.37192179E-04                    1_GWF-(1,26350)  2.13328173E-04                    1_GWF-(1,14868)
        308          7          8 -4.80635999E-04                    1_GWF-(1,26422) -1.63592090E-04                    1_GWF-(1,14868)
        309          7          9  3.13141847E-04                    1_GWF-(1,26588)  1.47290110E-04                    1_GWF-(1,14868)
        310          7         10  3.31160963E-04                    1_GWF-(1,26350)  8.72002731E-05                    1_GWF-(1,14869)
        311          7         11 -3.69877703E-04                    1_GWF-(1,26350)  7.99883217E-05                    1_GWF-(1,14782)
        312          7         12  4.13186110E-04                    1_GWF-(1,26350)  1.00658959E-04                    1_GWF-(1,14867)
        313          7         13  6.25161032E-04                    1_GWF-(1,26422)  5.77843770E-05                    1_GWF-(1,14782)
        314          7         14 -6.10396996E-04                    1_GWF-(1,26588)  8.61675532E-05                    1_GWF-(1,14868)
        315          7         15 -6.79462230E-04                    1_GWF-(1,26543)  6.15801012E-05                    1_GWF-(1,14867)
        316          7         16 -4.97341030E-04                    1_GWF-(1,26544)  7.58759346E-05                    1_GWF-(1,14782)
        317          7         17 -5.63152436E-04                    1_GWF-(1,26486)  8.80614855E-05                    1_GWF-(1,14867)
        318          7         18 -5.02454714E-04                    1_GWF-(1,26487)  7.96058929E-05                    1_GWF-(1,14869)
        319          7         19 -5.87497230E-04                    1_GWF-(1,26486)  1.16033338E-04                    1_GWF-(1,14868)
        320          7         20 -5.76609128E-04                    1_GWF-(1,26487)  6.50449005E-05                    1_GWF-(1,14869)
        321          7         21 -5.34151462E-04                    1_GWF-(1,26420) -5.51208190E-05                    1_GWF-(1,14867)
        322          7         22 -4.74927320E-04                    1_GWF-(1,26422)  6.99191945E-05                    1_GWF-(1,14868)
        323          7         23  4.49476859E-04                    1_GWF-(1,26665) -9.57994766E-05                    1_GWF-(1,14868)
        324          7         24  4.11834924E-04                    1_GWF-(1,26420)  1.22901909E-04                    1_GWF-(1,14868)
        325          7         25  4.26643147E-04                    1_GWF-(1,26486) -1.00358712E-04                    1_GWF-(1,14868)
        326          7         26  3.36254197E-04                    1_GWF-(1,26487)  7.25022041E-05                    1_GWF-(1,14868)
        327          7         27  4.03667160E-04                    1_GWF-(1,26420)  3.13639221E-05                    1_GWF-(1,14867)
        328          7         28  4.63219757E-04                    1_GWF-(1,26487) -6.53017977E-05                    1_GWF-(1,14868)
        329          7         29  4.19654363E-04                    1_GWF-(1,26420)  1.07909567E-04                    1_GWF-(1,14868)
        330          7         30 -3.46854603E-04                    1_GWF-(1,26420) -9.92511365E-05                    1_GWF-(1,14868)
        331          7         31 -2.61880536E-04                    1_GWF-(1,24664)  9.59087226E-05                    1_GWF-(1,14868)
        332          7         32 -2.42996841E-04                    1_GWF-(1,24661) -7.14948553E-05                    1_GWF-(1,14868)
        333          7         33 -2.44464553E-04                    1_GWF-(1,26218)  6.51076550E-05                    1_GWF-(1,14868)
        334          7         34 -2.23619064E-04                    1_GWF-(1,26217)  5.20612677E-05                    1_GWF-(1,14867)
        335          7         35 -2.65365797E-04                    1_GWF-(1,26175)  4.90503615E-05                    1_GWF-(1,14868)
        336          7         36  2.71209590E-04                    1_GWF-(1,26218)  2.76265328E-05                    1_GWF-(1,14869)
        337          7         37 -1.80008625E-04                    1_GWF-(1,26390)  2.97683450E-05                    1_GWF-(1,14868)
        338          7         38 -2.46028641E-04                    1_GWF-(1,26586)  1.81794909E-05                    1_GWF-(1,14782)
        339          7         39 -2.58708305E-04                    1_GWF-(1,26623)  3.83043395E-05                    1_GWF-(1,14867)
        340          7         40  2.28797138E-04                    1_GWF-(1,26218) -4.92472134E-05                    1_GWF-(1,14867)
        341          7         41 -2.25712636E-04                    1_GWF-(1,26672)  7.20100900E-05                    1_GWF-(1,14867)
        342          7         42 -2.99142369E-04                    1_GWF-(1,26217) -6.39590476E-05                    1_GWF-(1,14867)
        343          7         43 -3.10074006E-04                    1_GWF-(1,26665)  5.43860879E-05                    1_GWF-(1,14867)
        344          7         44  3.42461329E-04                    1_GWF-(1,26665)  1.79551670E-05                    1_GWF-(1,14782)
        345          7         45  3.74905731E-04                    1_GWF-(1,26666)  1.34289772E-05                    1_GWF-(1,14782)
        346          7         46  3.73020652E-04                    1_GWF-(1,26665)  4.02011168E-05                    1_GWF-(1,14867)
        347          7         47  2.25228093E-04                    1_GWF-(1,26218) -4.49077415E-05                    1_GWF-(1,14867)
        348          7         48  2.83413196E-04                    1_GWF-(1,26217)  5.24803043E-05                    1_GWF-(1,14867)
        349          7         49  2.18901140E-04                    1_GWF-(1,26218) -4.28722425E-05                    1_GWF-(1,14867)
        350          7         50  3.14239272E-04                    1_GWF-(1,11460)  5.40953687E-05                    1_GWF-(1,14867)
        351          8          1 -3.14177903E-04                    1_GWF-(1,11460) -4.06000375E-05                    1_GWF-(1,14867)
        352          8          2 -1.85284060E-04                    1_GWF-(1,26218)  4.59628278E-05                    1_GWF-(1,14867)
        353          8          3 -2.31691822E-04                    1_GWF-(1,26217) -3.71815964E-05                    1_GWF-(1,14867)
        354          8          4 -1.96497692E-04                    1_GWF-(1,26218)  3.25626302E-05                    1_GWF-(1,14867)
        355          8          5 -2.15849309E-04                    1_GWF-(1,26665)  1.20018103E-05                    1_GWF-(1,14782)
        356          8          6 -2.40279256E-04                    1_GWF-(1,26666)  1.03808165E-05                    1_GWF-(1,14782)
        357          8          7 -2.53386606E-04                    1_GWF-(1,26665)  3.17293189E-05                    1_GWF-(1,14867)
        358          8          8 -1.60945425E-04                    1_GWF-(1,26666) -3.61639538E-05                    1_GWF-(1,14867)
        359          8          9 -1.63886485E-04                    1_GWF-(1,26588)  3.49474960E-05                    1_GWF-(1,14867)
        360          8         10  1.37470234E-04                    1_GWF-(1,26487) -1.87921247E-05                    1_GWF-(1,14867)
        361          8         11  1.46708089E-04                    1_GWF-(1,26622)  4.93299788E-06                    1_GWF-(1,14868)
        362          8         12  2.14294693E-04                    1_GWF-(1,26623)  1.17327432E-05                    1_GWF-(1,14867)
        363          8         13  1.78289934E-04                    1_GWF-(1,26622) -1.35509651E-05                    1_GWF-(1,14867)
        364          8         14  1.36218636E-04                    1_GWF-(1,26649)  1.41226983E-05                    1_GWF-(1,14867)
        365          8         15  1.19426662E-04                    1_GWF-(1,26622)  7.67463618E-06                    1_GWF-(1,14782)
        366          8         16 -8.89721035E-05                    1_GWF-(1,26218)  9.95600390E-06                    1_GWF-(1,14868)
        367          8         17  8.14431842E-05                    1_GWF-(1,24679)  7.95006577E-06                    1_GWF-(1,14869)
        368          8         18  7.31758037E-05                    1_GWF-(1,24671)  1.05732273E-05                    1_GWF-(1,14868)
        369          8         19  7.79837357E-05                    1_GWF-(1,26486)  1.07324153E-05                    1_GWF-(1,14867)
        370          8         20 -1.17866199E-04                    1_GWF-(1,26486)  7.82479609E-06                    1_GWF-(1,14782)
        371          8         21 -1.28173760E-04                    1_GWF-(1,26487)  3.42352155E-06                    1_GWF-(1,10965)
        372          8         22 -1.12826388E-04                    1_GWF-(1,26486)  9.59233762E-06                    1_GWF-(1,14867)
        373          8         23 -8.18562740E-05                    1_GWF-(1,26487)  1.42332992E-05                    1_GWF-(1,14868)
        374          8         24 -6.96627893E-05                    1_GWF-(1,26420)  1.61731594E-05                    1_GWF-(1,14867)
        375          8         25 -9.00265641E-05                    1_GWF-(1,26218)  1.77524224E-05                    1_GWF-(1,14868)
        376          8         26 -7.17531088E-05                    1_GWF-(1,26217) -1.86631627E-05                    1_GWF-(1,14868)
        377          8         27 -6.55980906E-05                    1_GWF-(1,26421)  2.36358184E-05                    1_GWF-(1,14868)
        378          8         28  8.61924263E-05                    1_GWF-(1,26588) -2.01997136E-05                    1_GWF-(1,14868)
        379          8         29  6.92124072E-05                    1_GWF-(1,26589)  1.74921456E-05                    1_GWF-(1,14868)
        380          8         30 -7.89176907E-05                    1_GWF-(1,26589) -6.66262075E-06                    1_GWF-(1,14868)
        381          8         31 -1.12010087E-04                    1_GWF-(1,26588)  1.01418395E-05                    1_GWF-(1,14867)
        382          8         32  9.02140934E-05                    1_GWF-(1,26420)  1.59938780E-05                    1_GWF-(1,14868)
        383          8         33  8.10001479E-05                    1_GWF-(1,26421)  1.48592592E-05                    1_GWF-(1,14869)
        384          8         34  6.65486266E-05                    1_GWF-(1,26350)  1.80430313E-05                    1_GWF-(1,14868)
        385          8         35  6.77903955E-05                    1_GWF-(1,26422) -1.15892923E-05                    1_GWF-(1,14868)
        386          8         36 -6.70742485E-05                    1_GWF-(1,26422)  1.16091145E-05                    1_GWF-(1,14868)
        387          8         37 -9.10545842E-05                    1_GWF-(1,26350)  8.56250901E-06                    1_GWF-(1,14782)
        388          8         38 -8.37085630E-05                    1_GWF-(1,26422)  1.16607824E-05                    1_GWF-(1,14867)
        389          8         39 -5.20457933E-05                    1_GWF-(1,26350)  8.57863732E-06                    1_GWF-(1,14782)
        390          8         40 -4.47158038E-05                    1_GWF-(1,26422)  8.51611864E-06                    1_GWF-(1,14867)
        391          8         41 -4.15823009E-05                    1_GWF-(1,26350)  1.28186533E-05                    1_GWF-(1,14868)
        392          8         42 -2.97520225E-05                    1_GWF-(1,26588) -1.39593069E-05                    1_GWF-(1,14868)
        393          8         43  4.55478531E-05                    1_GWF-(1,26422)  1.83758213E-05                    1_GWF-(1,14868)
        394          8         44  4.46481071E-05                    1_GWF-(1,26350) -1.53065107E-05                    1_GWF-(1,14868)
        395          8         45  2.50218751E-05                    1_GWF-(1,26588)  1.37527922E-05                    1_GWF-(1,14868)
        396          8         46  3.73008442E-05                    1_GWF-(1,26486) -5.95156288E-06                    1_GWF-(1,14868)
        397          8         47  4.50387491E-05                    1_GWF-(1,26649) -4.87439792E-06                    1_GWF-(1,14868)
        398          8         48  4.27153455E-05                    1_GWF-(1,26622)  1.17764910E-05                    1_GWF-(1,14868)
        399          8         49 -4.01896327E-05                    1_GWF-(1,26486) -1.40878648E-05                    1_GWF-(1,14868)
        400          8         50 -2.29425403E-05                    1_GWF-(1,26544)  1.34600255E-05                    1_GWF-(1,14868)
        401          9          1  2.58339903E-05                    1_GWF-(1,26544) -2.08503019E-05                    1_GWF-(1,14868)
        402          9          2  4.13760622E-05                    1_GWF-(1,26486)  1.37098565E-05                    1_GWF-(1,14868)
        403          9          3 -3.25600558E-05                    1_GWF-(1,26622) -5.56279163E-06                    1_GWF-(1,14868)
        404          9          4 -3.82936495E-05                    1_GWF-(1,26649) -4.24070898E-06                    1_GWF-(1,14867)
        405          9          5 -3.66402504E-05                    1_GWF-(1,26486)  1.00383954E-05                    1_GWF-(1,14868)
        406          9          6 -2.76315042E-05                    1_GWF-(1,26588) -1.05034832E-05                    1_GWF-(1,14868)
        407          9          7 -2.98448303E-05                    1_GWF-(1,26350)  1.40313915E-05                    1_GWF-(1,14868)
        408          9          8 -3.70195752E-05                    1_GWF-(1,26421) -1.23869627E-05                    1_GWF-(1,14868)
        409          9          9 -2.45557563E-05                    1_GWF-(1,26350)  1.16561310E-05                    1_GWF-(1,14868)
        410          9         10  2.27776463E-05                    1_GWF-(1,26350)  7.12012964E-06                    1_GWF-(1,14869)
        411          9         11  2.57219928E-05                    1_GWF-(1,26486)  5.70390942E-06                    1_GWF-(1,14868)
        412          9         12  2.84071095E-05                    1_GWF-(1,26544)  7.28061975E-06                    1_GWF-(1,14867)
        413          9         13  5.01467694E-05                    1_GWF-(1,26422)  5.71613770E-06                    1_GWF-(1,14782)
        414          9         14  5.75535020E-05                    1_GWF-(1,26350)  6.42687097E-06                    1_GWF-(1,14867)
        415          9         15  4.34469527E-05                    1_GWF-(1,26422) -6.02738058E-06                    1_GWF-(1,14868)
        416          9         16 -3.92046211E-05                    1_GWF-(1,26422)  9.21812381E-06                    1_GWF-(1,14868)
        417          9         17 -3.81263076E-05                    1_GWF-(1,26420)  6.31797841E-06                    1_GWF-(1,14869)
        418          9         18 -4.76225690E-05                    1_GWF-(1,26487)  4.32881586E-06                    1_GWF-(1,14782)
        419          9         19 -5.03740171E-05                    1_GWF-(1,26486)  5.20258529E-06                    1_GWF-(1,14868)
        420          9         20 -4.59487084E-05                    1_GWF-(1,26487) -7.90597554E-06                    1_GWF-(1,14868)
        421          9         21 -4.45600273E-05                    1_GWF-(1,26486)  1.03832283E-05                    1_GWF-(1,14868)
        422          9         22  2.41923844E-05                    1_GWF-(1,26486) -9.05867090E-06                    1_GWF-(1,14868)
        423          9         23  2.36509677E-05                    1_GWF-(1,26420)  8.37452150E-06                    1_GWF-(1,14868)
        424          9         24  2.97283147E-05                    1_GWF-(1,26421)  5.44333328E-06                    1_GWF-(1,14867)
        425          9         25  3.16176017E-05                    1_GWF-(1,26588)  2.89897810E-06                    1_GWF-(1,14782)
        426          9         26  3.41613952E-05                    1_GWF-(1,26543)  3.23082418E-06                    1_GWF-(1,14868)
        427          9         27  3.41451707E-05                    1_GWF-(1,26588)  4.87283895E-06                    1_GWF-(1,14869)
        428          9         28 -2.74694743E-05                    1_GWF-(1,26588)  6.67005883E-06                    1_GWF-(1,14868)
        429          9         29  2.13646023E-05                    1_GWF-(1,26588)  5.93091739E-06                    1_GWF-(1,14867)
        430          9         30  2.27167205E-05                    1_GWF-(1,26665)  4.64150787E-06                    1_GWF-(1,14868)
        431          9         31  2.71919804E-05                    1_GWF-(1,26666)  2.85225158E-06                    1_GWF-(1,14867)
        432          9         32  3.78734063E-05                    1_GWF-(1,26665)  8.60196412E-07                    1_GWF-(1,10959)
        433          9         33  3.22142796E-05                    1_GWF-(1,26666)  2.28580842E-06                    1_GWF-(1,14868)
        434          9         34 -2.90224287E-05                    1_GWF-(1,26666)  3.73667451E-06                    1_GWF-(1,14867)
        435          9         35 -3.96462361E-05                    1_GWF-(1,26665)  3.85589204E-06                    1_GWF-(1,14868)
        436          9         36 -2.49188238E-05                    1_GWF-(1,26663)  2.81258650E-06                    1_GWF-(1,14867)
        437          9         37 -1.45779822E-05                    1_GWF-(1,26588)  2.74725647E-06                    1_GWF-(1,14868)
        438          9         38 -2.20202989E-05                    1_GWF-(1,26586)  1.50592972E-06                    1_GWF-(1,14869)
        439          9         39 -3.02242561E-05                    1_GWF-(1,26623)  1.30449470E-06                    1_GWF-(1,14867)
        440          9         40 -3.00514865E-05                    1_GWF-(1,26622)  1.53146140E-06                    1_GWF-(1,14782)
        441          9         41 -2.65665184E-05                    1_GWF-(1,26487)  1.46381083E-06                    1_GWF-(1,14869)
        442          9         42  2.49625626E-05                    1_GWF-(1,26649)  1.81934361E-06                    1_GWF-(1,14868)
        443          9         43 -1.88777596E-05                    1_GWF-(1,26217)  1.56264688E-06                    1_GWF-(1,14782)
        444          9         44  1.74746136E-05                    1_GWF-(1,26544)  2.82026840E-06                    1_GWF-(1,14867)
        445          9         45  1.44543924E-05                    1_GWF-(1,26218) -2.80530858E-06                    1_GWF-(1,14867)
        446          9         46  1.61972791E-05                    1_GWF-(1,26422)  3.97231551E-06                    1_GWF-(1,14867)
        447          9         47  1.77979131E-05                    1_GWF-(1,26218) -3.62772846E-06                    1_GWF-(1,14867)
        448          9         48  2.09706913E-05                    1_GWF-(1,26217)  4.05580045E-06                    1_GWF-(1,14867)
        449          9         49  1.71045284E-05                    1_GWF-(1,26218) -3.23972983E-06                    1_GWF-(1,14867)
        450          9         50  1.74854414E-05                    1_GWF-(1,11460)  4.00461394E-06                    1_GWF-(1,14867)
        451         10          1 -1.78588633E-05                    1_GWF-(1,11460) -3.46108388E-06                    1_GWF-(1,14867)
        452         10          2 -1.51902591E-05                    1_GWF-(1,26218)  3.79592497E-06                    1_GWF-(1,14867)
        453         10          3 -1.78589570E-05                    1_GWF-(1,26217) -2.67632430E-06                    1_GWF-(1,14867)
        454         10          4 -1.41021176E-05                    1_GWF-(1,26350)  2.24047413E-06                    1_GWF-(1,14867)
        455         10          5 -1.92609087E-05                    1_GWF-(1,26487)  5.96063124E-07                    1_GWF-(1,14782)
        456         10          6 -2.14811776E-05                    1_GWF-(1,26486)  1.17929243E-06                    1_GWF-(1,14782)
        457         10          7 -1.82819114E-05                    1_GWF-(1,26487)  2.44922938E-06                    1_GWF-(1,14867)
        458         10          8 -1.11911265E-05                    1_GWF-(1,26649) -2.20390286E-06                    1_GWF-(1,14867)
        459         10          9  1.20266783E-05                    1_GWF-(1,26217)  1.96077257E-06                    1_GWF-(1,14867)
        460         10         10  9.71970989E-06                    1_GWF-(1,26218) -9.71398133E-07                    1_GWF-(1,14867)
        461         10         11  6.28529474E-06                    1_GWF-(1,21281)  6.44861989E-07                    1_GWF-(1,14868)
        462         10         12  1.08138623E-05                    1_GWF-(1,26588)  6.07676158E-07                    1_GWF-(1,14869)
        463         10         13  1.22964578E-05                    1_GWF-(1,26589)  7.97728845E-07                    1_GWF-(1,14868)
        464         10         14  1.54496139E-05                    1_GWF-(1,26588)  7.86399771E-07                    1_GWF-(1,14867)
        465         10         15  1.25221797E-05                    1_GWF-(1,26543)  4.29007153E-07                    1_GWF-(1,14782)
        466         10         16  1.09431319E-05                    1_GWF-(1,26588)  6.76809572E-07                    1_GWF-(1,14868)
        467         10         17  7.69620527E-06                    1_GWF-(1,26543)  6.94803233E-07                    1_GWF-(1,14869)
        468         10         18 -7.32337984E-06                    1_GWF-(1,26622)  7.82687914E-07                    1_GWF-(1,14868)
        469         10         19 -8.19712992E-06                    1_GWF-(1,26649)  6.23114193E-07                    1_GWF-(1,14867)
        470         10         20 -7.33976981E-06                    1_GWF-(1,26622)  2.54476752E-07                    1_GWF-(1,10968)
        471         10         21 -6.99391507E-06                    1_GWF-(1,26649)  7.15040558E-07                    1_GWF-(1,14868)
        472         10         22 -4.87311772E-06                    1_GWF-(1,26622)  1.04798140E-06                    1_GWF-(1,14867)
        473         10         23  4.23344667E-06                    1_GWF-(1,26663)  1.25910883E-06                    1_GWF-(1,14868)
        474         10         24  5.83972275E-06                    1_GWF-(1,26665)  1.25991195E-06                    1_GWF-(1,14867)
        475         10         25 -5.71282354E-06                    1_GWF-(1,26218)  1.33220728E-06                    1_GWF-(1,14868)
        476         10         26  5.16073594E-06                    1_GWF-(1,26665)  9.57522002E-07                    1_GWF-(1,14869)
        477         10         27 -6.45089003E-06                    1_GWF-(1,26665)  7.25717491E-07                    1_GWF-(1,14868)
        478         10         28 -7.62352015E-06                    1_GWF-(1,26666)  5.31452583E-07                    1_GWF-(1,14782)
        479         10         29 -6.70483591E-06                    1_GWF-(1,26665)  9.70746354E-07                    1_GWF-(1,14867)
        480         10         30  5.71659202E-06                    1_GWF-(1,26665)  1.19223385E-06                    1_GWF-(1,14868)
        481         10         31  5.18304263E-06                    1_GWF-(1,26486) -1.25059571E-06                    1_GWF-(1,14868)
        482         10         32  5.82341566E-06                    1_GWF-(1,26350)  1.64647929E-06                    1_GWF-(1,14868)
        483         10         33  5.84195995E-06                    1_GWF-(1,26422)  1.21398491E-06                    1_GWF-(1,14869)
        484         10         34  4.82907116E-06                    1_GWF-(1,26350)  1.35628154E-06                    1_GWF-(1,14868)
        485         10         35  4.77552249E-06                    1_GWF-(1,26422) -8.52668798E-07                    1_GWF-(1,14868)
        486         10         36 -5.23888675E-06                    1_GWF-(1,26422)  7.64283334E-07                    1_GWF-(1,14868)
        487         10         37 -6.67402105E-06                    1_GWF-(1,26350)  5.63111691E-07                    1_GWF-(1,14782)
        488         10         38 -5.50890862E-06                    1_GWF-(1,26422)  5.68333952E-07                    1_GWF-(1,14867)
        489         10         39 -5.45853886E-06                    1_GWF-(1,26486)  6.35373498E-07                    1_GWF-(1,14868)
        490         10         40 -5.72391180E-06                    1_GWF-(1,26487)  3.93609105E-07                    1_GWF-(1,14869)
        491         10         41 -4.08849278E-06                    1_GWF-(1,26486)  6.00160615E-07                    1_GWF-(1,14867)
        492         10         42  3.35159723E-06                    1_GWF-(1,26486)  4.98715393E-07                    1_GWF-(1,14782)
        493         10         43  3.33528580E-06                    1_GWF-(1,26350)  5.19062735E-07                    1_GWF-(1,14869)
        494         10         44  3.86945988E-06                    1_GWF-(1,26422)  8.70794806E-07                    1_GWF-(1,14868)
        495         10         45 -2.94540088E-06                    1_GWF-(1,26622) -6.93951490E-07                    1_GWF-(1,14868)
        496         10         46  3.09717343E-06                    1_GWF-(1,26622)  4.60405417E-07                    1_GWF-(1,14868)
        497         10         47  3.81749380E-06                    1_GWF-(1,26649) -3.09684700E-07                    1_GWF-(1,14867)
        498         10         48  3.70286304E-06                    1_GWF-(1,26622) -5.66192224E-07                    1_GWF-(1,14868)
        499         10         49  2.46227594E-06                    1_GWF-(1,26623)  7.68430865E-07                    1_GWF-(1,14868)
        500         10         50 -1.99412665E-06                    1_GWF-(1,26486) -8.81754778E-07                    1_GWF-(1,14868)
        501         11          1  1.94377725E-06                    1_GWF-(1,26486)  1.71195932E-06                    1_GWF-(1,14868)
        502         11          2 -2.08084840E-06                    1_GWF-(1,26623) -9.28536305E-07                    1_GWF-(1,14868)
        503         11          3 -2.76642032E-06                    1_GWF-(1,26622)  3.76515922E-07                    1_GWF-(1,14868)
        504         11          4 -3.66897139E-06                    1_GWF-(1,26649)  3.22808326E-07                    1_GWF-(1,14868)
        505         11          5 -3.09502024E-06                    1_GWF-(1,26622) -8.46960875E-07                    1_GWF-(1,14868)
        506         11          6  2.80226938E-06                    1_GWF-(1,26622)  1.17396086E-06                    1_GWF-(1,14868)
        507         11          7 -2.42294484E-06                    1_GWF-(1,26422) -6.25083295E-07                    1_GWF-(1,14868)
        508         11          8 -2.40418348E-06                    1_GWF-(1,26350)  2.60686112E-07                    1_GWF-(1,14868)
        509         11          9  3.50688273E-06                    1_GWF-(1,26588)  3.44058288E-07                    1_GWF-(1,14867)
        510         11         10  3.29038467E-06                    1_GWF-(1,26543) -4.62544953E-07                    1_GWF-(1,14868)
        511         11         11  3.35352070E-06                    1_GWF-(1,26588)  5.70599692E-07                    1_GWF-(1,14868)
        512         11         12 -2.53223982E-06                    1_GWF-(1,26588)  2.77778593E-07                    1_GWF-(1,14869)
        513         11         13  2.86150284E-06                    1_GWF-(1,26422)  3.50646317E-07                    1_GWF-(1,14782)
        514         11         14  3.86962307E-06                    1_GWF-(1,26350)  4.85383341E-07                    1_GWF-(1,14867)
        515         11         15  3.05068336E-06                    1_GWF-(1,26422) -2.85945054E-07                    1_GWF-(1,14868)
        516         11         16  2.94936235E-06                    1_GWF-(1,26420)  3.25078413E-07                    1_GWF-(1,14868)
        517         11         17 -3.36191059E-06                    1_GWF-(1,26486)  5.21190345E-07                    1_GWF-(1,14867)
        518         11         18 -3.19886328E-06                    1_GWF-(1,26487)  4.86760463E-07                    1_GWF-(1,14782)
        519         11         19 -3.37454387E-06                    1_GWF-(1,26422)  5.00373493E-07                    1_GWF-(1,14867)
        520         11         20 -3.95522456E-06                    1_GWF-(1,26350) -5.45363951E-07                    1_GWF-(1,14868)
        521         11         21 -2.85696711E-06                    1_GWF-(1,26422)  6.95794760E-07                    1_GWF-(1,14868)
        522         11         22 -1.45680428E-06                    1_GWF-(1,26420) -6.25543447E-07                    1_GWF-(1,14868)
        523         11         23  1.48935795E-06                    1_GWF-(1,26666)  6.99464715E-07                    1_GWF-(1,14868)
        524         11         24  1.96064452E-06                    1_GWF-(1,26674) -5.69384335E-07                    1_GWF-(1,14868)
        525         11         25  1.51683775E-06                    1_GWF-(1,26348)  5.08556929E-07                    1_GWF-(1,14868)
        526         11         26  2.01242426E-06                    1_GWF-(1,26218)  3.79362389E-07                    1_GWF-(1,14867)
        527         11         27 -2.60890654E-06                    1_GWF-(1,26665)  1.79387073E-07                    1_GWF-(1,14782)
        528         11         28 -2.33329873E-06                    1_GWF-(1,26666)  2.65346771E-07                    1_GWF-(1,14868)
        529         11         29 -1.75028785E-06                    1_GWF-(1,26674) -3.76052835E-07                    1_GWF-(1,14868)
        530         11         30  1.77979853E-06                    1_GWF-(1,26665)  4.52177640E-07                    1_GWF-(1,14868)
        531         11         31  1.53454301E-06                    1_GWF-(1,26663)  3.63314549E-07                    1_GWF-(1,14867)
        532         11         32 -1.32582294E-06                    1_GWF-(1,26486)  2.68185232E-07                    1_GWF-(1,14868)
        533         11         33  1.66064956E-06                    1_GWF-(1,26486)  1.74354130E-07                    1_GWF-(1,14867)
        534         11         34 -2.38606018E-06                    1_GWF-(1,26486)  6.64511788E-08                    1_GWF-(1,14869)
        535         11         35 -2.61379165E-06                    1_GWF-(1,26487)  2.15668674E-07                    1_GWF-(1,14868)
        536         11         36 -1.83765037E-06                    1_GWF-(1,26420)  2.47481825E-07                    1_GWF-(1,14867)
        537         11         37 -1.36907018E-06                    1_GWF-(1,26623)  2.11660403E-07                    1_GWF-(1,14868)
        538         11         38 -1.28314624E-06                    1_GWF-(1,26586)  1.47644119E-07                    1_GWF-(1,14869)
        539         11         39 -1.61138140E-06                    1_GWF-(1,26623)  1.13710192E-07                    1_GWF-(1,14868)
        540         11         40 -1.78669075E-06                    1_GWF-(1,26622)  4.66655010E-08                    1_GWF-(1,10872)
        541         11         41  2.09402014E-06                    1_GWF-(1,26622)  1.24147789E-07                    1_GWF-(1,14867)
        542         11         42  2.37390247E-06                    1_GWF-(1,26649)  1.16154340E-07                    1_GWF-(1,14868)
        543         11         43  1.90416736E-06                    1_GWF-(1,26622)  8.17659865E-08                    1_GWF-(1,14869)
        544         11         44  1.20577929E-06                    1_GWF-(1,26649)  8.82433484E-08                    1_GWF-(1,14868)
        545         11         45  8.70394450E-07                    1_GWF-(1,26542)  1.07784269E-07                    1_GWF-(1,14782)
        546         12          1  7.15074952E-07                    1_GWF-(1,26422)  1.39156445E-07                    1_GWF-(1,14867)
 --------------------------------------------------------------------------------------------------------------------------------------



 MEMORY MANAGER TOTAL STORAGE BY DATA TYPE, IN MEGABYTES
 -------------------------------
                    ALLOCATED   
 DATA TYPE           MEMORY     
 -------------------------------
 Character        4.66090000E-02
 Logical          4.40000000E-05
 Integer          5.2037920     
 Real             11.901376     
 -------------------------------
 Total            17.151821     
 -------------------------------


 
 Run end date and time (yyyy/mm/dd hh:mm:ss): 2022/05/27 18:31:11
 Elapsed run time:  0.597 Seconds
 Normal termination of simulation.
