                                   MODFLOW 6
                U.S. GEOLOGICAL SURVEY MODULAR HYDROLOGIC MODEL
                            VERSION 6.2.2 07/30/2021

   MODFLOW 6 compiled Jul 31 2021 14:22:53 with IFORT compiler (ver. 19.10.3)

This software has been approved for release by the U.S. Geological 
Survey (USGS). Although the software has been subjected to rigorous 
review, the USGS reserves the right to update the software as needed 
pursuant to further analysis and review. No warranty, expressed or 
implied, is made by the USGS or the U.S. Government as to the 
functionality of the software and related material nor shall the 
fact of release constitute any such warranty. Furthermore, the 
software is released on condition that neither the USGS nor the U.S. 
Government shall be held liable for any damages resulting from its 
authorized or unauthorized use. Also refer to the USGS Water 
Resources Software User Rights Notice for complete use, copyright, 
and distribution information.


System command used to initiate simulation:
mf6

MODFLOW was compiled using uniform precision.

Real Variables
  KIND: 8
  TINY (smallest non-zero value):    2.225074-308
  HUGE (largest value):    1.797693+308
  PRECISION: 15
  BIT SIZE: 64

Integer Variables
  KIND: 4
  HUGE (largest value): 2147483647
  BIT SIZE: 32

Long Integer Variables
  KIND: 8
  HUGE (largest value): 9223372036854775807
  BIT SIZE: 64

Logical Variables
  KIND: 4
  BIT SIZE: 32
 

 OPENED mfsim.nam
 FILE TYPE:NAM   UNIT 1001   STATUS:OLD                 
 FORMAT:FORMATTED              ACCESS:SEQUENTIAL          
 ACTION:READ                

 # File generated by Flopy version 3.3.5 on 04/25/2022 at 00:15:22.

 READING SIMULATION OPTIONS
 END OF SIMULATION OPTIONS

 READING SIMULATION TIMING

 OPENED mfsim.tdis
 FILE TYPE:TDIS   UNIT 1002   STATUS:OLD                 
 FORMAT:FORMATTED              ACCESS:SEQUENTIAL          
 ACTION:READ                


 TDIS -- TEMPORAL DISCRETIZATION PACKAGE,
 VERSION 1 : 11/13/2014 - INPUT READ FROM UNIT 1002
 # File generated by Flopy version 3.3.5 on 04/25/2022 at 00:15:22.
 PROCESSING TDIS OPTIONS
    SIMULATION TIME UNIT IS SECONDS
 END OF TDIS OPTIONS
 PROCESSING TDIS DIMENSIONS
    1 STRESS PERIOD(S) IN SIMULATION
 END OF TDIS DIMENSIONS
 PROCESSING TDIS PERIODDATA


 STRESS PERIOD     LENGTH       TIME STEPS     MULTIPLIER FOR DELT
 ----------------------------------------------------------------------------
        1         3.000000          1                    1.000
 END OF TDIS PERIODDATA
 END OF SIMULATION TIMING

 READING SIMULATION MODELS
    GWF6 model ML will be created as model 1
 END OF SIMULATION MODELS

 READING SIMULATION EXCHANGES
 END OF SIMULATION EXCHANGES

 READING SOLUTIONGROUP

 Creating solution: SLN_1           

 OPENED mfsim.ims
 FILE TYPE:IMS   UNIT 1015   STATUS:OLD                 
 FORMAT:FORMATTED              ACCESS:SEQUENTIAL          
 ACTION:READ                

 END OF SIMULATION SOLUTIONGROUP

 IMS -- ITERATIVE MODEL SOLUTION PACKAGE, VERSION 6, 4/28/2017
         INPUT READ FROM UNIT 1015
 # File generated by Flopy version 3.3.5 on 04/25/2022 at 00:15:22.

 PROCESSING IMS OPTIONS
 END OF IMS OPTIONS

 PROCESSING IMS NONLINEAR
 END OF IMS NONLINEAR DATA
 ***UNDER-RELAXATION WILL NOT BE USED***
 
 ***IMS LINEAR SOLVER WILL BE USED***

 IMSLINEAR -- UNSTRUCTURED LINEAR SOLUTION PACKAGE, VERSION 8, 04/28/2017

 PROCESSING LINEAR DATA
 END OF LINEAR DATA
 
 OUTER ITERATION CONVERGENCE CRITERION    (DVCLOSE) =    0.100000E-04
 MAXIMUM NUMBER OF OUTER ITERATIONS        (MXITER) = 100
 SOLVER PRINTOUT INDEX                     (IPRIMS) = 2
 NONLINEAR ITERATION METHOD            (NONLINMETH) = 0
 LINEAR SOLUTION METHOD                   (LINMETH) = 1

       SOLUTION BY THE        CONJUGATE-GRADIENT       METHOD
 ------------------------------------------------------------------
 MAXIMUM OF 100 CALLS OF SOLUTION ROUTINE
 MAXIMUM OF 50 INTERNAL ITERATIONS PER CALL TO SOLUTION ROUTINE
 LINEAR ACCELERATION METHOD            = CG        
 MATRIX PRECONDITIONING TYPE           = INCOMPLETE LU       
 MATRIX SCALING APPROACH               = NO SCALING          
 MATRIX REORDERING APPROACH            = ORIGINAL ORDERING        
 NUMBER OF ORTHOGONALIZATIONS          = 0
 HEAD CHANGE CRITERION FOR CLOSURE     =    0.10000E-05
 RESIDUAL CHANGE CRITERION FOR CLOSURE =    0.10000E-04
 RESIDUAL CONVERGENCE OPTION           = 1
 RESIDUAL CONVERGENCE NORM             = INFINITY NORM S 
 RELAXATION FACTOR                     =    0.00000E+00



 
    Solving:  Stress period:     1    Time step:     1
 
1
                            STRESS PERIOD NO. 1, LENGTH =   3.000000    
                            -----------------------------------------------
                            NUMBER OF TIME STEPS = 1
                            MULTIPLIER FOR DELT =     1.000
                            INITIAL TIME STEP SIZE =   3.000000    

 SLN_1 OUTER ITERATION SUMMARY
 ----------------------------------------------------------------------------------------------------------
                                OUTER      INNER                    STEP   MAXIMUM CHANGE MODEL-(CELLID) OR
 OUTER ITERATION STEP       ITERATION  ITERATION  MAXIMUM CHANGE SUCCESS             MODEL-PACKAGE-(NUMBER)
 ----------------------------------------------------------------------------------------------------------
 Model                              1         50       610.33709                            1_GWF-(1,26381)
 Model                              2         50      -607.64354                            1_GWF-(1,26381)
 Model                              3         50      -2.4801088                            1_GWF-(1,23178)
 Model                              4         50     -0.56787501                            1_GWF-(1,22353)
 Model                              5         50 -4.83441315E-02                            1_GWF-(1,11378)
 Model                              6         50 -1.58344129E-02                            1_GWF-(1,11373)
 Model                              7         50 -3.27856015E-03                            1_GWF-(1,11374)
 Model                              8         50 -4.48004173E-04                            1_GWF-(1,22360)
 Model                              9         50 -4.06975478E-05                            1_GWF-(1,23300)
 Model                             10         33 -1.76123965E-05                            1_GWF-(1,22360)
 Model                             11          1 -5.66652693E-07       *                    1_GWF-(1,26421)
 ----------------------------------------------------------------------------------------------------------


 11 CALLS TO NUMERICAL SOLUTION IN TIME STEP 1 STRESS PERIOD 1
 484 TOTAL ITERATIONS

 SLN_1 INNER ITERATION SUMMARY
 --------------------------------------------------------------------------------------------------------------------------------------
      TOTAL      OUTER      INNER                                                            MAXIMUM                                   
  ITERATION  ITERATION  ITERATION  MAXIMUM CHANGE      MAXIMUM CHANGE MODEL-(CELLID)        RESIDUAL    MAXIMUM RESIDUAL MODEL-(CELLID)
 --------------------------------------------------------------------------------------------------------------------------------------
          1          1          1       183.02732                    1_GWF-(1,26381)       1.9458943                     1_GWF-(1,7788)
          2          1          2       273.16527                    1_GWF-(1,26380)      -1.1321440                    1_GWF-(1,15907)
          3          1          3       157.68690                    1_GWF-(1,26444)      0.85957920                    1_GWF-(1,15907)
          4          1          4       83.396515                    1_GWF-(1,26380)      0.57264491                    1_GWF-(1,15226)
          5          1          5       66.819699                    1_GWF-(1,26520)     -0.37928793                    1_GWF-(1,15221)
          6          1          6       60.506922                    1_GWF-(1,26572)      0.45994271                    1_GWF-(1,15216)
          7          1          7       62.503059                    1_GWF-(1,26648)      0.40452275                    1_GWF-(1,15226)
          8          1          8       53.612932                    1_GWF-(1,26649)     -0.36410911                    1_GWF-(1,15226)
          9          1          9       39.077344                    1_GWF-(1,26589)      0.33141575                    1_GWF-(1,15221)
         10          1         10       32.666904                    1_GWF-(1,26543)     -0.17085348                    1_GWF-(1,15216)
         11          1         11       24.850607                    1_GWF-(1,26544)     -0.15652763                    1_GWF-(1,15226)
         12          1         12       20.991165                    1_GWF-(1,26420)      0.19832743                    1_GWF-(1,15221)
         13          1         13       18.467673                    1_GWF-(1,26422) -6.96300068E-02                    1_GWF-(1,15216)
         14          1         14       13.343071                    1_GWF-(1,26350) -9.21921816E-02                    1_GWF-(1,15221)
         15          1         15       8.5913447                    1_GWF-(1,26218)  9.95616880E-02                    1_GWF-(1,15221)
         16          1         16      -8.2363073                    1_GWF-(1,26622)  4.53870989E-02                    1_GWF-(1,11047)
         17          1         17      -6.5279829                    1_GWF-(1,26623)     -0.11792615                    1_GWF-(1,15221)
         18          1         18      -6.1706746                    1_GWF-(1,26543)      0.12137235                    1_GWF-(1,15221)
         19          1         19      -6.8485653                    1_GWF-(1,26588)  6.11852916E-02                    1_GWF-(1,11152)
         20          1         20       10.379799                    1_GWF-(1,26588)     -0.10761373                    1_GWF-(1,15221)
         21          1         21      -8.3371220                    1_GWF-(1,26588)  6.71623682E-02                    1_GWF-(1,15221)
         22          1         22      -8.6862462                    1_GWF-(1,26543)  7.43680450E-02                    1_GWF-(1,15910)
         23          1         23      -7.6817420                    1_GWF-(1,26544)     -0.11373317                    1_GWF-(1,15221)
         24          1         24      -11.073363                    1_GWF-(1,26486)  5.12856580E-02                    1_GWF-(1,15221)
         25          1         25      -10.306669                    1_GWF-(1,26487)  8.68529187E-02                    1_GWF-(1,15910)
         26          1         26       10.877359                    1_GWF-(1,26487) -9.01959015E-02                    1_GWF-(1,15221)
         27          1         27       10.579091                    1_GWF-(1,26420) -5.25510746E-02                    1_GWF-(1,11203)
         28          1         28       6.3348836                    1_GWF-(1,26487)  6.35998599E-02                    1_GWF-(1,15910)
         29          1         29       4.5138291                    1_GWF-(1,26542) -5.85241648E-02                    1_GWF-(1,15221)
         30          1         30       5.1550879                    1_GWF-(1,26623) -3.42552450E-02                    1_GWF-(1,11050)
         31          1         31       3.8533144                    1_GWF-(1,26586)  4.60936295E-02                    1_GWF-(1,15910)
         32          1         32       3.8918719                    1_GWF-(1,26422) -5.10953103E-02                    1_GWF-(1,11203)
         33          1         33       4.3532319                    1_GWF-(1,26544) -4.38405004E-02                    1_GWF-(1,11200)
         34          1         34       3.9338873                    1_GWF-(1,26665)  2.85541887E-02                    1_GWF-(1,15910)
         35          1         35       3.4840298                    1_GWF-(1,26350) -2.87777876E-02                    1_GWF-(1,15221)
         36          1         36       3.7769916                    1_GWF-(1,26422) -2.44499115E-02                    1_GWF-(1,11200)
         37          1         37      -2.7290114                    1_GWF-(1,26422) -2.38880105E-02                    1_GWF-(1,11152)
         38          1         38      -3.4662686                    1_GWF-(1,26350) -2.79892687E-02                    1_GWF-(1,15216)
         39          1         39      -2.3516340                    1_GWF-(1,26622) -3.52983715E-02                    1_GWF-(1,11206)
         40          1         40      -2.4093440                    1_GWF-(1,26648)  2.72923752E-02                    1_GWF-(1,11108)
         41          1         41      -1.8590803                    1_GWF-(1,26649)  2.91423644E-02                    1_GWF-(1,11159)
         42          1         42      -1.7025078                    1_GWF-(1,26623)  3.59141361E-02                    1_GWF-(1,11197)
         43          1         43      -1.6158769                    1_GWF-(1,26586) -3.20230590E-02                    1_GWF-(1,11206)
         44          1         44      -1.2262197                    1_GWF-(1,26543)  3.94677067E-02                    1_GWF-(1,11206)
         45          1         45      -1.2121972                    1_GWF-(1,26486)  2.39126034E-02                    1_GWF-(1,11201)
         46          1         46       1.0153589                    1_GWF-(1,26649) -2.11502077E-02                    1_GWF-(1,11201)
         47          1         47       1.1745945                    1_GWF-(1,26648) -2.17870526E-02                    1_GWF-(1,12427)
         48          1         48      -1.5655023                    1_GWF-(1,26218)  2.47122548E-02                    1_GWF-(1,11197)
         49          1         49      -1.6000843                    1_GWF-(1,26217) -1.70848444E-02                    1_GWF-(1,11206)
         50          1         50       1.1431451                    1_GWF-(1,26217)  1.33405459E-02                    1_GWF-(1,11206)
         51          2          1      -609.51352                    1_GWF-(1,26381)      -3.3976900                    1_GWF-(1,26381)
         52          2          2      -219.93147                    1_GWF-(1,26513)       1.1514782                    1_GWF-(1,26381)
         53          2          3      -104.62703                    1_GWF-(1,26440)      0.72238759                    1_GWF-(1,26506)
         54          2          4      -62.893597                    1_GWF-(1,26665)     -0.29511035                    1_GWF-(1,26506)
         55          2          5      -52.705714                    1_GWF-(1,26649)      0.28498064                    1_GWF-(1,26381)
         56          2          6      -45.619314                    1_GWF-(1,26589)     -0.30883181                    1_GWF-(1,26381)
         57          2          7      -41.544283                    1_GWF-(1,26588)     -0.25949384                    1_GWF-(1,26506)
         58          2          8      -32.151476                    1_GWF-(1,26544)      0.13355851                    1_GWF-(1,26506)
         59          2          9      -25.653189                    1_GWF-(1,26487)     -0.11618771                    1_GWF-(1,26381)
         60          2         10      -19.072900                    1_GWF-(1,26421)     -0.12237635                    1_GWF-(1,26506)
         61          2         11      -17.100862                    1_GWF-(1,26348)  5.25231172E-02                    1_GWF-(1,26665)
         62          2         12      -13.065481                    1_GWF-(1,26218) -7.80945297E-02                    1_GWF-(1,26381)
         63          2         13      -7.9471025                    1_GWF-(1,26218) -7.32165275E-02                    1_GWF-(1,26506)
         64          2         14      -6.6319643                    1_GWF-(1,26649)  2.96854147E-02                    1_GWF-(1,26551)
         65          2         15      -8.1019891                    1_GWF-(1,26622) -6.69653691E-02                    1_GWF-(1,26381)
         66          2         16      -8.4421334                    1_GWF-(1,26623) -7.81851312E-02                    1_GWF-(1,26506)
         67          2         17      -7.0725726                    1_GWF-(1,26622)  4.21234141E-02                    1_GWF-(1,26551)
         68          2         18       7.0537892                    1_GWF-(1,26422) -7.93326478E-02                    1_GWF-(1,26381)
         69          2         19       7.0607076                    1_GWF-(1,26588) -7.33549658E-02                    1_GWF-(1,26506)
         70          2         20       9.0166058                    1_GWF-(1,26543) -3.92505017E-02                    1_GWF-(1,26447)
         71          2         21       10.376516                    1_GWF-(1,26588) -9.05443754E-02                    1_GWF-(1,26381)
         72          2         22       10.292285                    1_GWF-(1,26543) -6.93296972E-02                    1_GWF-(1,26506)
         73          2         23       7.3672624                    1_GWF-(1,26542) -5.49559950E-02                    1_GWF-(1,26447)
         74          2         24      -7.8985812                    1_GWF-(1,26487) -9.86096874E-02                    1_GWF-(1,26381)
         75          2         25      -10.272794                    1_GWF-(1,26486) -5.40119655E-02                    1_GWF-(1,26506)
         76          2         26      -11.271187                    1_GWF-(1,26487)  8.00458594E-02                    1_GWF-(1,26381)
         77          2         27      -7.8251493                    1_GWF-(1,26486)      0.10243481                    1_GWF-(1,26506)
         78          2         28      -4.5852667                    1_GWF-(1,26477) -5.02160860E-02                    1_GWF-(1,26506)
         79          2         29      -3.0196477                    1_GWF-(1,26649)  3.78022552E-02                    1_GWF-(1,26381)
         80          2         30       3.1900983                    1_GWF-(1,26420)  6.26588107E-02                    1_GWF-(1,26506)
         81          2         31      -2.7719642                    1_GWF-(1,26663) -4.54780747E-02                    1_GWF-(1,26506)
         82          2         32      -2.9664748                    1_GWF-(1,26421) -2.25075090E-02                    1_GWF-(1,26378)
         83          2         33      -3.7843013                    1_GWF-(1,26350) -4.92136511E-02                    1_GWF-(1,26381)
         84          2         34      -2.8005765                    1_GWF-(1,26422) -5.11844141E-02                    1_GWF-(1,26506)
         85          2         35       3.7840197                    1_GWF-(1,26422) -2.46703175E-02                    1_GWF-(1,26378)
         86          2         36       3.2599913                    1_GWF-(1,26350) -3.48699121E-02                    1_GWF-(1,26381)
         87          2         37      -3.0683214                    1_GWF-(1,26350) -4.56271813E-02                    1_GWF-(1,26506)
         88          2         38       2.8307178                    1_GWF-(1,26350) -2.00629643E-02                    1_GWF-(1,26378)
         89          2         39       3.2936782                    1_GWF-(1,26422) -3.01887489E-02                    1_GWF-(1,26381)
         90          2         40       2.1825012                    1_GWF-(1,26350) -4.31644586E-02                    1_GWF-(1,26506)
         91          2         41       1.3625691                    1_GWF-(1,26217)  2.67675790E-02                    1_GWF-(1,26506)
         92          2         42      0.96648736                    1_GWF-(1,26218)  1.53728200E-02                    1_GWF-(1,26378)
         93          2         43       1.0482169                    1_GWF-(1,26663)  2.70753921E-02                    1_GWF-(1,26381)
         94          2         44     -0.90789176                    1_GWF-(1,26217)  2.78936343E-02                    1_GWF-(1,26506)
         95          2         45     -0.75331710                    1_GWF-(1,26192) -1.14932734E-02                    1_GWF-(1,26550)
         96          2         46     -0.64046998                    1_GWF-(1,26242)  1.36833335E-02                     1_GWF-(1,9691)
         97          2         47     -0.77012212                    1_GWF-(1,26218)  2.34313343E-02                    1_GWF-(1,26506)
         98          2         48      -1.0794407                    1_GWF-(1,26217) -2.27982807E-02                    1_GWF-(1,26506)
         99          2         49      0.73595543                    1_GWF-(1,25377) -1.99248939E-02                     1_GWF-(1,9691)
        100          2         50     -0.70251665                    1_GWF-(1,23037)  3.28344983E-02                     1_GWF-(1,9691)
        101          3          1      0.39374241                    1_GWF-(1,26674) -1.73902219E-02                    1_GWF-(1,11430)
        102          3          2      0.52258441                    1_GWF-(1,22782)  3.87837796E-02                     1_GWF-(1,9691)
        103          3          3      0.71307216                    1_GWF-(1,26217)  3.34431361E-02                     1_GWF-(1,9692)
        104          3          4      0.76100586                    1_GWF-(1,26218)  4.09531883E-02                     1_GWF-(1,9691)
        105          3          5      0.43211829                    1_GWF-(1,26543)  3.86540179E-02                     1_GWF-(1,9692)
        106          3          6     -0.49194875                    1_GWF-(1,26217)  5.86434792E-02                     1_GWF-(1,9691)
        107          3          7      0.39752568                    1_GWF-(1,26194) -5.40838780E-02                     1_GWF-(1,9691)
        108          3          8     -0.39572691                    1_GWF-(1,26672)  6.70976557E-02                     1_GWF-(1,9691)
        109          3          9      0.41458661                    1_GWF-(1,13206) -6.81194787E-02                     1_GWF-(1,9691)
        110          3         10      0.41284473                    1_GWF-(1,13192)  8.87136480E-02                     1_GWF-(1,9691)
        111          3         11     -0.35840348                    1_GWF-(1,26407) -8.64028187E-02                     1_GWF-(1,9691)
        112          3         12      0.38005199                    1_GWF-(1,26648)  9.62652970E-02                     1_GWF-(1,9691)
        113          3         13      0.37220957                    1_GWF-(1,21332) -9.51026826E-02                     1_GWF-(1,9691)
        114          3         14      0.38957093                    1_GWF-(1,21358)      0.10157600                     1_GWF-(1,9691)
        115          3         15     -0.53995427                    1_GWF-(1,26648) -8.93207063E-02                     1_GWF-(1,9691)
        116          3         16     -0.46337619                    1_GWF-(1,26665)  8.63807729E-02                     1_GWF-(1,9691)
        117          3         17     -0.36354838                    1_GWF-(1,26674) -5.90524759E-02                     1_GWF-(1,9691)
        118          3         18      0.27867945                    1_GWF-(1,26350)  4.58727134E-02                     1_GWF-(1,9691)
        119          3         19      0.39861125                    1_GWF-(1,26665)  2.48901251E-02                     1_GWF-(1,9692)
        120          3         20      0.40016365                    1_GWF-(1,26674)  2.08525452E-02                     1_GWF-(1,9691)
        121          3         21     -0.17469558                    1_GWF-(1,14448)  1.00580785E-02                     1_GWF-(1,9692)
        122          3         22      0.30820609                    1_GWF-(1,26350)  6.66189895E-03                    1_GWF-(1,10961)
        123          3         23      0.33154117                    1_GWF-(1,26421)  1.14782805E-02                     1_GWF-(1,9691)
        124          3         24      0.51249595                    1_GWF-(1,26420)  1.47818616E-02                     1_GWF-(1,9692)
        125          3         25      0.45348395                    1_GWF-(1,26422)  2.00250014E-02                     1_GWF-(1,9691)
        126          3         26      0.54047818                    1_GWF-(1,26420)  1.21265572E-02                     1_GWF-(1,9692)
        127          3         27      0.43579636                    1_GWF-(1,26487) -4.66018578E-03                    1_GWF-(1,16201)
        128          3         28     -0.40127158                    1_GWF-(1,26544)  1.25662229E-02                     1_GWF-(1,9691)
        129          3         29     -0.54237561                    1_GWF-(1,26486)  1.39425419E-02                     1_GWF-(1,9692)
        130          3         30     -0.41926758                    1_GWF-(1,26544)  1.56027470E-02                     1_GWF-(1,9691)
        131          3         31     -0.38378960                    1_GWF-(1,26486)  8.04841846E-03                     1_GWF-(1,9692)
        132          3         32     -0.33949764                    1_GWF-(1,26588)  4.00497862E-03                    1_GWF-(1,11148)
        133          3         33      0.35647419                    1_GWF-(1,26588)  9.83874042E-03                     1_GWF-(1,9691)
        134          3         34     -0.44314469                    1_GWF-(1,26588)  1.21203383E-02                     1_GWF-(1,9692)
        135          3         35      0.34559265                    1_GWF-(1,26588)  1.36740073E-02                     1_GWF-(1,9691)
        136          3         36      0.23730928                    1_GWF-(1,26648)  7.26458866E-03                     1_GWF-(1,9692)
        137          3         37      0.37204946                    1_GWF-(1,26649)  5.10561041E-03                    1_GWF-(1,11048)
        138          3         38      0.44420709                    1_GWF-(1,26622)  5.90243259E-03                     1_GWF-(1,9691)
        139          3         39      0.37893414                    1_GWF-(1,26649)  7.28074788E-03                     1_GWF-(1,9692)
        140          3         40      0.29829540                    1_GWF-(1,26422)  7.95739535E-03                     1_GWF-(1,9691)
        141          3         41     -0.23273241                    1_GWF-(1,26666)  4.28796651E-03                    1_GWF-(1,11047)
        142          3         42     -0.32522352                    1_GWF-(1,26665)  3.59075852E-03                    1_GWF-(1,11152)
        143          3         43     -0.30467351                    1_GWF-(1,26666)  4.53775155E-03                     1_GWF-(1,9691)
        144          3         44     -0.30036807                    1_GWF-(1,26665)  4.49499480E-03                     1_GWF-(1,9692)
        145          3         45      0.31429555                    1_GWF-(1,26665)  5.07068243E-03                     1_GWF-(1,9691)
        146          3         46      0.25172638                    1_GWF-(1,26666)  3.24957234E-03                     1_GWF-(1,9692)
        147          3         47     -0.17192322                    1_GWF-(1,26543) -3.30441706E-03                    1_GWF-(1,11054)
        148          3         48     -0.16964160                    1_GWF-(1,26542)  2.88052478E-03                    1_GWF-(1,10966)
        149          3         49     -0.20271583                    1_GWF-(1,26623)  3.26457588E-03                    1_GWF-(1,11156)
        150          3         50     -0.17296345                    1_GWF-(1,26586)  2.46634322E-03                    1_GWF-(1,11155)
        151          4          1     -0.26501677                    1_GWF-(1,11428) -7.08757708E-03                    1_GWF-(1,10745)
        152          4          2     -0.22284400                    1_GWF-(1,11421) -5.21901518E-03                    1_GWF-(1,15063)
        153          4          3     -0.18427858                    1_GWF-(1,11423)  2.92365622E-03                    1_GWF-(1,15063)
        154          4          4     -0.16844875                    1_GWF-(1,11404)  2.25794680E-03                    1_GWF-(1,15062)
        155          4          5     -0.14077685                    1_GWF-(1,11316)  2.40776176E-03                    1_GWF-(1,15067)
        156          4          6  9.66558389E-02                    1_GWF-(1,11404)  2.84167519E-03                    1_GWF-(1,15063)
        157          4          7      0.11872560                    1_GWF-(1,11403)  2.59853863E-03                    1_GWF-(1,15062)
        158          4          8     -0.12190638                    1_GWF-(1,26665) -2.33390782E-03                    1_GWF-(1,15062)
        159          4          9     -0.12081143                    1_GWF-(1,26666) -2.36163060E-03                    1_GWF-(1,15067)
        160          4         10     -0.13544893                    1_GWF-(1,26665) -1.85187466E-03                    1_GWF-(1,15058)
        161          4         11      0.10966342                    1_GWF-(1,26665)  1.95826480E-03                    1_GWF-(1,15067)
        162          4         12  6.46750286E-02                    1_GWF-(1,26622) -2.13891804E-03                    1_GWF-(1,15067)
        163          4         13 -8.05672180E-02                    1_GWF-(1,26622) -1.57192296E-03                    1_GWF-(1,15058)
        164          4         14  8.40497391E-02                    1_GWF-(1,26622)  8.64418918E-04                    1_GWF-(1,15093)
        165          4         15  6.69319793E-02                    1_GWF-(1,26649)  1.13941962E-03                    1_GWF-(1,15058)
        166          4         16  5.18953621E-02                    1_GWF-(1,26622) -1.22559470E-03                    1_GWF-(1,15058)
        167          4         17  4.29034816E-02                    1_GWF-(1,26588)  1.16669285E-03                     1_GWF-(1,9691)
        168          4         18 -5.84091171E-02                    1_GWF-(1,26588) -1.30470793E-03                     1_GWF-(1,9691)
        169          4         19  6.79198942E-02                    1_GWF-(1,26588) -1.20963691E-03                    1_GWF-(1,15058)
        170          4         20 -7.98105678E-02                    1_GWF-(1,26588)  9.33623433E-04                    1_GWF-(1,10961)
        171          4         21 -5.80216328E-02                    1_GWF-(1,26543)  9.61346334E-04                    1_GWF-(1,15069)
        172          4         22 -3.85598545E-02                    1_GWF-(1,26588)  1.12122467E-03                     1_GWF-(1,9691)
        173          4         23 -4.99966064E-02                    1_GWF-(1,26486) -1.27493308E-03                     1_GWF-(1,9691)
        174          4         24  5.66814486E-02                    1_GWF-(1,26486)  1.05672120E-03                     1_GWF-(1,9691)
        175          4         25 -6.40441953E-02                    1_GWF-(1,26486)  7.80470409E-04                    1_GWF-(1,15080)
        176          4         26 -5.63639551E-02                    1_GWF-(1,26487) -1.20451288E-03                    1_GWF-(1,15079)
        177          4         27 -6.01617220E-02                    1_GWF-(1,26420)  1.62189007E-03                     1_GWF-(1,9691)
        178          4         28 -6.38299465E-02                    1_GWF-(1,26422) -2.11010878E-03                     1_GWF-(1,9691)
        179          4         29 -5.89922591E-02                    1_GWF-(1,26350)  2.03151950E-03                     1_GWF-(1,9691)
        180          4         30  4.39765414E-02                    1_GWF-(1,26350)  1.20705676E-03                     1_GWF-(1,9692)
        181          4         31  4.83062589E-02                    1_GWF-(1,26422)  1.24978626E-03                    1_GWF-(1,15078)
        182          4         32  3.71171717E-02                    1_GWF-(1,26350)  1.12223950E-03                    1_GWF-(1,15083)
        183          4         33  3.17644797E-02                    1_GWF-(1,26421) -8.39744026E-04                    1_GWF-(1,15083)
        184          4         34  2.38105855E-02                    1_GWF-(1,26350)  1.54220128E-03                     1_GWF-(1,9691)
        185          4         35 -2.37664464E-02                    1_GWF-(1,11459) -1.94861433E-03                     1_GWF-(1,9691)
        186          4         36 -2.26488295E-02                    1_GWF-(1,11365)  3.23489168E-03                     1_GWF-(1,9691)
        187          4         37  1.76291838E-02                    1_GWF-(1,11452) -3.44406265E-03                     1_GWF-(1,9691)
        188          4         38  3.05630044E-02                    1_GWF-(1,11454)  4.74824787E-03                     1_GWF-(1,9691)
        189          4         39  1.62399147E-02                    1_GWF-(1,11380) -5.39650929E-03                     1_GWF-(1,9691)
        190          4         40 -1.78636139E-02                    1_GWF-(1,11380)  6.36232177E-03                     1_GWF-(1,9691)
        191          4         41 -1.30520889E-02                    1_GWF-(1,13517) -5.68465247E-03                     1_GWF-(1,9691)
        192          4         42  1.52698459E-02                    1_GWF-(1,11369)  5.43068478E-03                     1_GWF-(1,9691)
        193          4         43 -1.53689370E-02                    1_GWF-(1,11380) -4.04388726E-03                     1_GWF-(1,9691)
        194          4         44  1.39095393E-02                    1_GWF-(1,11453)  3.24605285E-03                     1_GWF-(1,9691)
        195          4         45  1.02915436E-02                    1_GWF-(1,26217) -2.21891788E-03                     1_GWF-(1,9691)
        196          4         46  7.55916851E-03                    1_GWF-(1,22909)  1.99836062E-03                     1_GWF-(1,9691)
        197          4         47  7.77265159E-03                    1_GWF-(1,11701)  1.24581115E-03                     1_GWF-(1,9692)
        198          4         48  8.72602042E-03                    1_GWF-(1,11454)  1.29746047E-03                     1_GWF-(1,9691)
        199          4         49 -9.19695044E-03                    1_GWF-(1,26218)  7.98618554E-04                     1_GWF-(1,9692)
        200          4         50 -1.17743785E-02                    1_GWF-(1,26217)  9.52627287E-04                     1_GWF-(1,9691)
        201          5          1 -4.07556675E-02                    1_GWF-(1,11378) -3.78428680E-04                    1_GWF-(1,11371)
        202          5          2 -2.91696257E-02                    1_GWF-(1,11369)  1.14531609E-03                     1_GWF-(1,9691)
        203          5          3 -1.56284476E-02                    1_GWF-(1,11454)  1.12253576E-03                     1_GWF-(1,9692)
        204          5          4  1.73118077E-02                    1_GWF-(1,11367)  1.24539037E-03                     1_GWF-(1,9691)
        205          5          5 -2.14607652E-02                    1_GWF-(1,11372)  1.10197075E-03                     1_GWF-(1,9692)
        206          5          6  1.97024461E-02                    1_GWF-(1,11372)  1.68734649E-03                     1_GWF-(1,9691)
        207          5          7  1.95928302E-02                    1_GWF-(1,11367) -1.67769963E-03                     1_GWF-(1,9691)
        208          5          8  1.48711389E-02                    1_GWF-(1,11368)  2.17840700E-03                     1_GWF-(1,9691)
        209          5          9  1.74643354E-02                    1_GWF-(1,11372) -2.35717461E-03                     1_GWF-(1,9691)
        210          5         10 -1.42905097E-02                    1_GWF-(1,11451)  2.67065910E-03                     1_GWF-(1,9691)
        211          5         11 -1.79969249E-02                    1_GWF-(1,11367) -2.35623421E-03                     1_GWF-(1,9691)
        212          5         12 -1.76058977E-02                    1_GWF-(1,11368)  2.44677395E-03                     1_GWF-(1,9691)
        213          5         13 -1.46217624E-02                    1_GWF-(1,11451) -1.93969428E-03                     1_GWF-(1,9691)
        214          5         14  1.37110494E-02                    1_GWF-(1,11451)  1.89406838E-03                     1_GWF-(1,9691)
        215          5         15  1.30580750E-02                    1_GWF-(1,11452) -1.33693135E-03                     1_GWF-(1,9691)
        216          5         16  1.42966640E-02                    1_GWF-(1,11368)  1.13152494E-03                     1_GWF-(1,9691)
        217          5         17  1.10912878E-02                    1_GWF-(1,11451)  4.89473774E-04                     1_GWF-(1,9692)
        218          5         18 -1.20392423E-02                    1_GWF-(1,26486)  1.60999007E-04                    1_GWF-(1,11352)
        219          5         19 -1.10341302E-02                    1_GWF-(1,26487)  6.56342456E-04                     1_GWF-(1,9691)
        220          5         20 -9.25300160E-03                    1_GWF-(1,26543)  6.48308446E-04                     1_GWF-(1,9692)
        221          5         21  8.44891997E-03                    1_GWF-(1,11452)  6.54939404E-04                     1_GWF-(1,9691)
        222          5         22 -8.63824418E-03                    1_GWF-(1,11452)  3.47275798E-04                     1_GWF-(1,9692)
        223          5         23 -8.54448155E-03                    1_GWF-(1,11415)  2.50255101E-04                     1_GWF-(1,9691)
        224          5         24  6.05238365E-03                    1_GWF-(1,26421) -1.85770373E-04                    1_GWF-(1,14800)
        225          5         25  6.81798888E-03                    1_GWF-(1,26350) -1.48255247E-04                    1_GWF-(1,14801)
        226          5         26  8.67396975E-03                    1_GWF-(1,26486)  2.81998729E-04                     1_GWF-(1,9691)
        227          5         27  7.22569675E-03                    1_GWF-(1,26544)  2.41242418E-04                     1_GWF-(1,9692)
        228          5         28  6.95219793E-03                    1_GWF-(1,26486)  1.88247293E-04                     1_GWF-(1,9691)
        229          5         29  6.12922082E-03                    1_GWF-(1,26622) -1.56469589E-04                    1_GWF-(1,10651)
        230          5         30  5.24462473E-03                    1_GWF-(1,26649)  2.03173345E-04                     1_GWF-(1,9692)
        231          5         31 -5.73789578E-03                    1_GWF-(1,26350)  3.60292478E-04                     1_GWF-(1,9691)
        232          5         32 -6.88949929E-03                    1_GWF-(1,26422)  2.90064866E-04                     1_GWF-(1,9692)
        233          5         33 -6.36200640E-03                    1_GWF-(1,26350)  3.36492685E-04                     1_GWF-(1,9691)
        234          5         34 -5.63382353E-03                    1_GWF-(1,26422)  1.95441651E-04                     1_GWF-(1,9692)
        235          5         35 -4.60007153E-03                    1_GWF-(1,26588)  1.44781224E-04                    1_GWF-(1,10651)
        236          5         36 -5.36526198E-03                    1_GWF-(1,26543) -9.44458642E-05                    1_GWF-(1,10651)
        237          5         37 -7.51267228E-03                    1_GWF-(1,26588)  1.41899043E-04                     1_GWF-(1,9692)
        238          5         38 -5.88841549E-03                    1_GWF-(1,26589)  2.34088453E-04                     1_GWF-(1,9691)
        239          5         39 -6.45640527E-03                    1_GWF-(1,26588) -1.87693087E-04                    1_GWF-(1,10651)
        240          5         40 -4.16201915E-03                    1_GWF-(1,26665)  1.69336735E-04                    1_GWF-(1,10651)
        241          5         41  5.29731339E-03                    1_GWF-(1,26665)  1.44377423E-04                    1_GWF-(1,10652)
        242          5         42  5.93023519E-03                    1_GWF-(1,26666)  1.29328408E-04                    1_GWF-(1,10651)
        243          5         43  6.68122203E-03                    1_GWF-(1,26665)  1.38961328E-04                     1_GWF-(1,9691)
        244          5         44 -4.83533385E-03                    1_GWF-(1,26665)  1.13992572E-04                     1_GWF-(1,9692)
        245          5         45  3.68513871E-03                    1_GWF-(1,26665)  1.61424567E-04                    1_GWF-(1,10651)
        246          5         46  3.43391608E-03                    1_GWF-(1,11305)  1.06117920E-04                    1_GWF-(1,10652)
        247          5         47  3.04968571E-03                    1_GWF-(1,11404)  1.08265379E-04                    1_GWF-(1,10651)
        248          5         48  3.13467829E-03                    1_GWF-(1,11411) -1.10657688E-04                    1_GWF-(1,10651)
        249          5         49  2.37731962E-03                    1_GWF-(1,11425)  1.24229443E-04                    1_GWF-(1,10651)
        250          5         50 -3.03111822E-03                     1_GWF-(1,8324) -1.06308679E-04                    1_GWF-(1,11351)
        251          6          1 -1.85593532E-02                    1_GWF-(1,11373)  6.66646732E-05                    1_GWF-(1,10651)
        252          6          2 -8.76960627E-03                    1_GWF-(1,11378) -7.42000272E-05                    1_GWF-(1,10651)
        253          6          3  6.90754209E-03                    1_GWF-(1,11378)  9.36915637E-05                    1_GWF-(1,10651)
        254          6          4  4.73092749E-03                    1_GWF-(1,11369) -6.92387974E-05                    1_GWF-(1,10651)
        255          6          5 -6.07766639E-03                    1_GWF-(1,11378)  8.24635389E-05                    1_GWF-(1,10651)
        256          6          6  5.22658268E-03                    1_GWF-(1,11378) -5.49712427E-05                     1_GWF-(1,9691)
        257          6          7  4.49200272E-03                    1_GWF-(1,11369)  4.80392365E-05                     1_GWF-(1,9691)
        258          6          8  3.60018455E-03                    1_GWF-(1,11454)  4.16069079E-05                    1_GWF-(1,10651)
        259          6          9  3.03262611E-03                    1_GWF-(1,11378)  4.84771324E-05                    1_GWF-(1,10652)
        260          6         10 -2.72786013E-03                    1_GWF-(1,26665)  4.07038338E-05                    1_GWF-(1,10651)
        261          6         11 -2.86236478E-03                    1_GWF-(1,11369) -5.04742148E-05                    1_GWF-(1,10651)
        262          6         12 -2.40994503E-03                    1_GWF-(1,11454)  4.59833260E-05                     1_GWF-(1,9691)
        263          6         13  1.60317723E-03                    1_GWF-(1,26543) -4.28944504E-05                     1_GWF-(1,9691)
        264          6         14  2.42566851E-03                    1_GWF-(1,26588) -3.19738977E-05                    1_GWF-(1,10651)
        265          6         15  1.95020394E-03                    1_GWF-(1,26543) -2.45402036E-05                    1_GWF-(1,10632)
        266          6         16  1.96943702E-03                    1_GWF-(1,26588)  1.95214246E-05                    1_GWF-(1,10966)
        267          6         17 -1.21771330E-03                    1_GWF-(1,26420)  3.39457081E-05                     1_GWF-(1,9691)
        268          6         18 -1.27726782E-03                    1_GWF-(1,26422) -5.44122412E-05                     1_GWF-(1,9691)
        269          6         19  1.50233751E-03                    1_GWF-(1,26422)  6.31264347E-05                     1_GWF-(1,9691)
        270          6         20  1.46230167E-03                    1_GWF-(1,26350)  4.66053308E-05                     1_GWF-(1,9692)
        271          6         21  1.29539941E-03                    1_GWF-(1,26422)  3.65303777E-05                     1_GWF-(1,9691)
        272          6         22 -1.40346991E-03                    1_GWF-(1,26622) -1.61678794E-05                    1_GWF-(1,15092)
        273          6         23 -1.63451452E-03                    1_GWF-(1,26649) -2.21133173E-05                     1_GWF-(1,9691)
        274          6         24 -1.37204641E-03                    1_GWF-(1,26487)  4.72817662E-05                     1_GWF-(1,9691)
        275          6         25 -1.66338519E-03                    1_GWF-(1,26486) -4.04603102E-05                     1_GWF-(1,9691)
        276          6         26 -1.48568888E-03                    1_GWF-(1,26350)  3.60201726E-05                     1_GWF-(1,9691)
        277          6         27 -1.27158030E-03                    1_GWF-(1,26422)  1.52100568E-05                    1_GWF-(1,11053)
        278          6         28  8.39549351E-04                    1_GWF-(1,11417) -1.93319875E-05                    1_GWF-(1,10652)
        279          6         29  8.15874261E-04                    1_GWF-(1,26420) -3.31907018E-05                    1_GWF-(1,10651)
        280          6         30  1.07659306E-03                    1_GWF-(1,26421)  3.41266963E-05                     1_GWF-(1,9692)
        281          6         31  1.08016373E-03                    1_GWF-(1,26420)  4.54023792E-05                     1_GWF-(1,9691)
        282          6         32  1.03345076E-03                    1_GWF-(1,26487) -3.54523559E-05                     1_GWF-(1,9691)
        283          6         33  1.06684612E-03                    1_GWF-(1,26486)  1.85479412E-05                     1_GWF-(1,9691)
        284          6         34  9.17853813E-04                    1_GWF-(1,26487)  1.86382708E-05                     1_GWF-(1,9691)
        285          6         35  7.65550407E-04                    1_GWF-(1,26486) -3.55305256E-05                     1_GWF-(1,9691)
        286          6         36 -4.69007921E-04                    1_GWF-(1,11466)  6.22686709E-05                     1_GWF-(1,9691)
        287          6         37 -3.80712321E-04                    1_GWF-(1,26348) -6.66018438E-05                     1_GWF-(1,9691)
        288          6         38  4.53466022E-04                    1_GWF-(1,11454)  8.97852188E-05                     1_GWF-(1,9691)
        289          6         39  3.82055270E-04                    1_GWF-(1,11464) -1.02362151E-04                     1_GWF-(1,9691)
        290          6         40 -3.56208725E-04                    1_GWF-(1,11380)  1.29739867E-04                     1_GWF-(1,9691)
        291          6         41 -4.09216718E-04                    1_GWF-(1,13486) -1.33575347E-04                     1_GWF-(1,9691)
        292          6         42 -3.73623951E-04                    1_GWF-(1,13494)  1.36270209E-04                     1_GWF-(1,9691)
        293          6         43 -3.75044987E-04                    1_GWF-(1,11380) -1.18088011E-04                     1_GWF-(1,9691)
        294          6         44  2.94969122E-04                    1_GWF-(1,26350)  1.03571570E-04                     1_GWF-(1,9691)
        295          6         45  3.14840730E-04                    1_GWF-(1,11379) -7.39146557E-05                     1_GWF-(1,9691)
        296          6         46 -3.61170414E-04                     1_GWF-(1,8097)  7.20132232E-05                     1_GWF-(1,9691)
        297          6         47 -2.93897563E-04                    1_GWF-(1,11378) -4.83273696E-05                     1_GWF-(1,9691)
        298          6         48 -2.35401726E-04                    1_GWF-(1,26217)  4.61085704E-05                     1_GWF-(1,9691)
        299          6         49  2.76261748E-04                    1_GWF-(1,11372) -2.39737493E-05                     1_GWF-(1,9691)
        300          6         50  2.94682303E-04                    1_GWF-(1,11454)  3.24946434E-05                     1_GWF-(1,9691)
        301          7          1 -3.39724416E-03                    1_GWF-(1,11374)  9.62761702E-06                     1_GWF-(1,9692)
        302          7          2 -1.04140493E-03                    1_GWF-(1,11379)  3.58302434E-05                     1_GWF-(1,9691)
        303          7          3 -4.84051212E-04                    1_GWF-(1,11466) -4.55230880E-05                     1_GWF-(1,9691)
        304          7          4  5.94935399E-04                    1_GWF-(1,11382)  4.51230175E-05                     1_GWF-(1,9691)
        305          7          5 -6.83426840E-04                    1_GWF-(1,11376) -3.65296199E-05                     1_GWF-(1,9691)
        306          7          6  5.45533755E-04                    1_GWF-(1,11453)  5.95760961E-05                     1_GWF-(1,9691)
        307          7          7  3.15209532E-04                    1_GWF-(1,11460) -7.09371577E-05                     1_GWF-(1,9691)
        308          7          8 -4.54820139E-04                    1_GWF-(1,11376)  6.93705612E-05                     1_GWF-(1,9691)
        309          7          9  3.38968786E-04                    1_GWF-(1,11376) -7.04223213E-05                     1_GWF-(1,9691)
        310          7         10  2.82658707E-04                    1_GWF-(1,11460)  7.84320985E-05                     1_GWF-(1,9691)
        311          7         11 -3.49303323E-04                    1_GWF-(1,11376) -5.75747417E-05                     1_GWF-(1,9691)
        312          7         12 -2.80567339E-04                    1_GWF-(1,11417)  4.38744832E-05                     1_GWF-(1,9691)
        313          7         13 -2.71753368E-04                    1_GWF-(1,26589)  2.40349550E-05                     1_GWF-(1,9692)
        314          7         14 -4.44524687E-04                    1_GWF-(1,26588)  7.91182179E-06                     1_GWF-(1,9669)
        315          7         15 -4.14841619E-04                    1_GWF-(1,26543)  2.43677605E-05                     1_GWF-(1,9691)
        316          7         16 -3.37874691E-04                    1_GWF-(1,26588) -3.02400890E-05                     1_GWF-(1,9691)
        317          7         17 -2.03312543E-04                    1_GWF-(1,26486)  2.91151817E-05                     1_GWF-(1,9691)
        318          7         18 -2.31033305E-04                    1_GWF-(1,26487)  1.52288027E-05                     1_GWF-(1,9692)
        319          7         19 -2.76582910E-04                    1_GWF-(1,26486)  7.35994932E-06                     1_GWF-(1,9669)
        320          7         20 -3.40744390E-04                    1_GWF-(1,26487)  1.46490998E-05                     1_GWF-(1,9691)
        321          7         21 -3.13392492E-04                    1_GWF-(1,26420)  1.85459432E-05                     1_GWF-(1,9692)
        322          7         22 -2.13215265E-04                    1_GWF-(1,26487)  2.01024228E-05                     1_GWF-(1,9691)
        323          7         23  1.66410915E-04                    1_GWF-(1,11382)  1.36373750E-05                     1_GWF-(1,9692)
        324          7         24  1.76301634E-04                    1_GWF-(1,26420)  1.28187281E-05                     1_GWF-(1,9691)
        325          7         25  2.03398329E-04                    1_GWF-(1,26421)  1.02520123E-05                     1_GWF-(1,9690)
        326          7         26  1.84080827E-04                    1_GWF-(1,26420)  6.73215822E-06                     1_GWF-(1,9669)
        327          7         27  1.92002951E-04                    1_GWF-(1,26421)  5.89130211E-06                     1_GWF-(1,9690)
        328          7         28  1.63416223E-04                    1_GWF-(1,26420) -3.51069825E-06                    1_GWF-(1,11353)
        329          7         29  1.36625143E-04                    1_GWF-(1,26421)  6.34952854E-06                     1_GWF-(1,9691)
        330          7         30 -1.64701841E-04                    1_GWF-(1,26422)  6.57988388E-06                     1_GWF-(1,9692)
        331          7         31  1.92063903E-04                    1_GWF-(1,26622)  7.49935082E-06                     1_GWF-(1,9691)
        332          7         32  1.91739479E-04                    1_GWF-(1,26649)  4.52502897E-06                     1_GWF-(1,9690)
        333          7         33  1.84609282E-04                    1_GWF-(1,26622)  3.65571239E-06                    1_GWF-(1,11353)
        334          7         34  2.24696175E-04                    1_GWF-(1,26486)  6.15869960E-06                     1_GWF-(1,9691)
        335          7         35 -1.54298777E-04                    1_GWF-(1,26486)  6.10799653E-06                     1_GWF-(1,9692)
        336          7         36  1.46905248E-04                    1_GWF-(1,26422)  6.66570585E-06                     1_GWF-(1,9691)
        337          7         37  1.23498451E-04                    1_GWF-(1,26350)  4.74079761E-06                     1_GWF-(1,9692)
        338          7         38 -1.16380227E-04                    1_GWF-(1,26666)  3.78281606E-06                     1_GWF-(1,9691)
        339          7         39 -1.48131219E-04                    1_GWF-(1,26665)  3.08146316E-06                    1_GWF-(1,11353)
        340          7         40  1.45849564E-04                    1_GWF-(1,26665)  3.06080251E-06                     1_GWF-(1,9690)
        341          7         41 -1.40601435E-04                    1_GWF-(1,26665)  4.74953266E-06                     1_GWF-(1,9691)
        342          7         42  1.46246649E-04                    1_GWF-(1,26665)  4.57711680E-06                     1_GWF-(1,9692)
        343          7         43 -1.28728601E-04                    1_GWF-(1,26350)  4.39732049E-06                     1_GWF-(1,9691)
        344          7         44 -1.14341881E-04                    1_GWF-(1,26422)  3.11245149E-06                     1_GWF-(1,9692)
        345          7         45  9.20392016E-05                    1_GWF-(1,26217)  4.05713716E-06                    1_GWF-(1,10653)
        346          7         46  1.12790934E-04                    1_GWF-(1,11378)  2.47279741E-06                    1_GWF-(1,10654)
        347          7         47  9.42619966E-05                    1_GWF-(1,26422)  2.75308856E-06                    1_GWF-(1,10653)
        348          7         48  9.79745165E-05                    1_GWF-(1,26218) -2.73382740E-06                    1_GWF-(1,10653)
        349          7         49  7.40075954E-05                    1_GWF-(1,26217)  3.93359665E-06                     1_GWF-(1,9690)
        350          7         50  1.19942920E-04                    1_GWF-(1,11373) -4.40066152E-06                     1_GWF-(1,9690)
        351          8          1 -1.38833699E-04                    1_GWF-(1,11373)  5.27316044E-06                     1_GWF-(1,9690)
        352          8          2 -1.09602622E-04                    1_GWF-(1,11378) -3.96664449E-06                     1_GWF-(1,9690)
        353          8          3 -8.55892282E-05                    1_GWF-(1,26218)  4.54952152E-06                     1_GWF-(1,9690)
        354          8          4 -7.76244268E-05                    1_GWF-(1,26217) -3.60642489E-06                     1_GWF-(1,9690)
        355          8          5 -1.03893971E-04                    1_GWF-(1,11378)  3.13362349E-06                     1_GWF-(1,9690)
        356          8          6  6.38089911E-05                    1_GWF-(1,11378) -9.98107977E-07                     1_GWF-(1,9691)
        357          8          7 -6.98781851E-05                    1_GWF-(1,26623) -1.47649470E-06                     1_GWF-(1,9690)
        358          8          8 -7.18928492E-05                    1_GWF-(1,26622)  3.11878145E-06                     1_GWF-(1,9690)
        359          8          9  7.05196889E-05                    1_GWF-(1,26218)  2.11012577E-06                     1_GWF-(1,9669)
        360          8         10  6.68797703E-05                    1_GWF-(1,26422)  2.02875819E-06                     1_GWF-(1,9691)
        361          8         11  6.23282054E-05                    1_GWF-(1,26350) -1.78760816E-06                     1_GWF-(1,9691)
        362          8         12  5.71532038E-05                    1_GWF-(1,26422)  1.85649503E-06                     1_GWF-(1,9691)
        363          8         13  5.16966173E-05                    1_GWF-(1,26665) -1.26425766E-06                     1_GWF-(1,9691)
        364          8         14  5.35092428E-05                    1_GWF-(1,26666) -1.26358269E-06                    1_GWF-(1,10653)
        365          8         15  5.98744712E-05                    1_GWF-(1,26665)  1.08292837E-06                     1_GWF-(1,9690)
        366          8         16 -4.30770364E-05                    1_GWF-(1,26665) -1.05334991E-06                     1_GWF-(1,9691)
        367          8         17  3.96092637E-05                    1_GWF-(1,11454)  1.75716236E-06                     1_GWF-(1,9691)
        368          8         18 -3.59053281E-05                    1_GWF-(1,22710)  1.76774450E-06                     1_GWF-(1,9692)
        369          8         19  4.25737280E-05                    1_GWF-(1,26422)  2.31352401E-06                     1_GWF-(1,9691)
        370          8         20  4.63775286E-05                    1_GWF-(1,26350)  1.68618638E-06                     1_GWF-(1,9692)
        371          8         21  3.90279655E-05                    1_GWF-(1,26422)  1.39955664E-06                     1_GWF-(1,9691)
        372          8         22 -3.68145219E-05                    1_GWF-(1,26486)  9.86847329E-07                     1_GWF-(1,9690)
        373          8         23 -3.34027415E-05                    1_GWF-(1,26544)  5.49102728E-07                     1_GWF-(1,5697)
        374          8         24 -4.30460615E-05                    1_GWF-(1,26486) -8.90369084E-07                    1_GWF-(1,10651)
        375          8         25 -3.70068771E-05                    1_GWF-(1,26487)  9.85368279E-07                     1_GWF-(1,9692)
        376          8         26 -3.97589285E-05                    1_GWF-(1,26420)  1.21763286E-06                     1_GWF-(1,9691)
        377          8         27 -4.62965282E-05                    1_GWF-(1,26487) -5.40373315E-07                     1_GWF-(1,9691)
        378          8         28 -3.87456412E-05                    1_GWF-(1,26420) -6.94828160E-07                    1_GWF-(1,11353)
        379          8         29  4.01925064E-05                    1_GWF-(1,26420)  1.35566095E-06                     1_GWF-(1,9691)
        380          8         30 -3.05115009E-05                    1_GWF-(1,26649)  1.54144106E-06                     1_GWF-(1,9692)
        381          8         31  2.57998610E-05                    1_GWF-(1,26217)  1.65769329E-06                     1_GWF-(1,9691)
        382          8         32  2.84162788E-05                    1_GWF-(1,26588) -1.02908376E-06                     1_GWF-(1,9691)
        383          8         33 -3.05283560E-05                    1_GWF-(1,26588)  4.40795352E-07                    1_GWF-(1,10651)
        384          8         34 -2.42335486E-05                    1_GWF-(1,26543)  8.94701435E-07                     1_GWF-(1,9691)
        385          8         35 -1.72078490E-05                    1_GWF-(1,11380)  1.41381221E-06                     1_GWF-(1,9692)
        386          8         36 -1.48514719E-05                    1_GWF-(1,26421)  2.34395990E-06                     1_GWF-(1,9691)
        387          8         37 -1.33090053E-05                    1_GWF-(1,26348) -2.42014152E-06                     1_GWF-(1,9691)
        388          8         38  1.45597790E-05                    1_GWF-(1,11456)  3.07087460E-06                     1_GWF-(1,9691)
        389          8         39  1.49019986E-05                    1_GWF-(1,11417) -3.46641558E-06                     1_GWF-(1,9691)
        390          8         40 -1.15472997E-05                    1_GWF-(1,13487)  4.39422047E-06                     1_GWF-(1,9691)
        391          8         41 -1.41867088E-05                    1_GWF-(1,11461) -4.06953600E-06                     1_GWF-(1,9691)
        392          8         42  1.46208804E-05                    1_GWF-(1,11380)  3.56349112E-06                     1_GWF-(1,9691)
        393          8         43 -1.45384744E-05                    1_GWF-(1,26622) -2.41698579E-06                     1_GWF-(1,9691)
        394          8         44 -1.59071565E-05                    1_GWF-(1,26649)  5.13819328E-07                     1_GWF-(1,9690)
        395          8         45 -1.61854504E-05                    1_GWF-(1,26622)  1.89039589E-06                     1_GWF-(1,9691)
        396          8         46 -1.30645138E-05                     1_GWF-(1,8097) -2.63567129E-06                     1_GWF-(1,9691)
        397          8         47 -1.67555017E-05                    1_GWF-(1,11380)  2.50612747E-06                     1_GWF-(1,9691)
        398          8         48 -2.03314785E-05                    1_GWF-(1,11379) -1.89052449E-06                     1_GWF-(1,9691)
        399          8         49  1.69116468E-05                    1_GWF-(1,11381)  1.87283639E-06                     1_GWF-(1,9691)
        400          8         50  2.24205478E-05                    1_GWF-(1,11376) -1.86774612E-06                     1_GWF-(1,9691)
        401          9          1 -1.88076434E-05                    1_GWF-(1,11379)  2.21846396E-06                     1_GWF-(1,9691)
        402          9          2 -1.46145944E-05                    1_GWF-(1,11382) -1.80903610E-06                     1_GWF-(1,9691)
        403          9          3  2.18379588E-05                    1_GWF-(1,11376)  1.93460510E-06                     1_GWF-(1,9691)
        404          9          4  1.57137855E-05                    1_GWF-(1,11380) -1.93511885E-06                     1_GWF-(1,9691)
        405          9          5  1.20125109E-05                    1_GWF-(1,11456)  1.65721807E-06                     1_GWF-(1,9691)
        406          9          6  1.18083178E-05                    1_GWF-(1,26622)  3.60104822E-07                     1_GWF-(1,9690)
        407          9          7  1.15134389E-05                    1_GWF-(1,26623) -1.23511628E-06                     1_GWF-(1,9691)
        408          9          8  1.03057503E-05                    1_GWF-(1,26622)  2.16416289E-06                     1_GWF-(1,9691)
        409          9          9  9.65547184E-06                    1_GWF-(1,26588) -2.42956341E-06                     1_GWF-(1,9691)
        410          9         10  8.53648525E-06                    1_GWF-(1,11460)  2.44333390E-06                     1_GWF-(1,9691)
        411          9         11 -7.36307622E-06                    1_GWF-(1,11376) -1.87262586E-06                     1_GWF-(1,9691)
        412          9         12 -7.58110286E-06                    1_GWF-(1,11417)  1.63491251E-06                     1_GWF-(1,9691)
        413          9         13 -6.53691025E-06                    1_GWF-(1,26665) -1.10499250E-06                     1_GWF-(1,9691)
        414          9         14  7.82701334E-06                    1_GWF-(1,26665)  8.33338424E-07                     1_GWF-(1,9691)
        415          9         15 -1.21736136E-05                    1_GWF-(1,26665)  5.32925838E-07                     1_GWF-(1,9690)
        416          9         16  1.20527063E-05                    1_GWF-(1,26665)  3.68946403E-07                     1_GWF-(1,9692)
        417          9         17 -1.26532917E-05                    1_GWF-(1,26665)  7.86909240E-07                     1_GWF-(1,9691)
        418          9         18  7.71542160E-06                    1_GWF-(1,26649) -6.83586553E-07                     1_GWF-(1,9691)
        419          9         19 -9.04605354E-06                    1_GWF-(1,26486)  5.27530946E-07                     1_GWF-(1,9691)
        420          9         20  8.84543689E-06                    1_GWF-(1,26623)  4.50731182E-07                     1_GWF-(1,9690)
        421          9         21  1.12479098E-05                    1_GWF-(1,26622)  4.11177527E-07                     1_GWF-(1,9692)
        422          9         22  8.79569228E-06                    1_GWF-(1,26623)  6.55450455E-07                     1_GWF-(1,9691)
        423          9         23 -6.25705584E-06                    1_GWF-(1,26623) -5.41351425E-07                     1_GWF-(1,9691)
        424          9         24  7.98398400E-06                    1_GWF-(1,26420) -4.90015899E-07                     1_GWF-(1,9690)
        425          9         25  8.11829235E-06                    1_GWF-(1,26421)  3.77887874E-07                     1_GWF-(1,9690)
        426          9         26  9.89078231E-06                    1_GWF-(1,26420)  1.14380973E-07                    1_GWF-(1,10958)
        427          9         27 -8.10895961E-06                    1_GWF-(1,26588)  3.19036660E-07                     1_GWF-(1,9691)
        428          9         28  6.71300172E-06                    1_GWF-(1,26588)  3.92185241E-07                     1_GWF-(1,9690)
        429          9         29  4.75293317E-06                    1_GWF-(1,26543)  3.17577925E-07                     1_GWF-(1,9669)
        430          9         30  5.53649082E-06                    1_GWF-(1,26588)  3.16799456E-07                     1_GWF-(1,9690)
        431          9         31  5.17740837E-06                    1_GWF-(1,26589)  2.19000367E-07                     1_GWF-(1,9669)
        432          9         32  4.45103657E-06                    1_GWF-(1,26588)  1.52582395E-07                     1_GWF-(1,9690)
        433          9         33  4.08266078E-06                    1_GWF-(1,22710) -1.28550126E-07                    1_GWF-(1,10966)
        434          9         34  4.45367330E-06                    1_GWF-(1,26421)  1.66342326E-07                     1_GWF-(1,9691)
        435          9         35  5.97829255E-06                    1_GWF-(1,26350)  2.19650403E-07                     1_GWF-(1,9690)
        436          9         36  7.05605548E-06                    1_GWF-(1,26422)  2.27338279E-07                     1_GWF-(1,9691)
        437          9         37  6.17138354E-06                    1_GWF-(1,26350)  2.05068206E-07                     1_GWF-(1,9690)
        438          9         38  4.32794478E-06                    1_GWF-(1,26422)  1.52566050E-07                     1_GWF-(1,9691)
        439          9         39 -4.55490460E-06                    1_GWF-(1,26588) -7.65934273E-08                    1_GWF-(1,10653)
        440          9         40 -5.18800824E-06                    1_GWF-(1,26486)  1.55629872E-07                     1_GWF-(1,9690)
        441          9         41  4.84646274E-06                    1_GWF-(1,26486)  1.99305682E-07                     1_GWF-(1,9691)
        442          9         42 -4.31155764E-06                    1_GWF-(1,26486)  1.74825560E-07                     1_GWF-(1,9692)
        443          9         43 -4.33554862E-06                    1_GWF-(1,26350)  1.51932221E-07                     1_GWF-(1,9691)
        444          9         44 -3.85557149E-06                    1_GWF-(1,26422) -1.09455686E-07                     1_GWF-(1,9691)
        445          9         45  2.87075256E-06                    1_GWF-(1,26217)  1.44898265E-07                    1_GWF-(1,10653)
        446          9         46  3.30025768E-06                    1_GWF-(1,26350) -9.49047249E-08                    1_GWF-(1,10653)
        447          9         47  3.62593034E-06                    1_GWF-(1,26422)  1.50740043E-07                     1_GWF-(1,9690)
        448          9         48  3.35225567E-06                    1_GWF-(1,26350) -1.24935628E-07                     1_GWF-(1,9690)
        449          9         49  3.65035063E-06                    1_GWF-(1,26487)  1.35145251E-07                     1_GWF-(1,9690)
        450          9         50 -4.05670546E-06                    1_GWF-(1,26487)  5.50139342E-08                    1_GWF-(1,10651)
        451         10          1  4.53086917E-06                    1_GWF-(1,26487)  3.35972551E-08                    1_GWF-(1,10654)
        452         10          2 -4.67602077E-06                    1_GWF-(1,26487)  3.23248487E-08                    1_GWF-(1,11203)
        453         10          3 -2.61486995E-06                    1_GWF-(1,26420)  6.15323534E-08                    1_GWF-(1,11197)
        454         10          4  2.02951539E-06                    1_GWF-(1,26649) -4.97489998E-08                    1_GWF-(1,11197)
        455         10          5  2.14460480E-06                    1_GWF-(1,26588)  7.34706861E-08                    1_GWF-(1,10653)
        456         10          6 -3.18963632E-06                    1_GWF-(1,26588)  5.64764806E-08                    1_GWF-(1,11197)
        457         10          7  3.19371391E-06                    1_GWF-(1,26588)  2.99439890E-08                    1_GWF-(1,11161)
        458         10          8 -2.66582306E-06                    1_GWF-(1,26588)  6.63646895E-08                    1_GWF-(1,10653)
        459         10          9 -2.35551845E-06                    1_GWF-(1,26649)  6.83513981E-08                    1_GWF-(1,10654)
        460         10         10  2.41615839E-06                    1_GWF-(1,26422)  8.69625075E-08                    1_GWF-(1,10653)
        461         10         11  2.32790385E-06                    1_GWF-(1,26350) -8.21105303E-08                    1_GWF-(1,10653)
        462         10         12  2.00883316E-06                    1_GWF-(1,26422)  7.02956057E-08                     1_GWF-(1,9691)
        463         10         13  1.57201632E-06                    1_GWF-(1,26666)  4.77889755E-08                     1_GWF-(1,9692)
        464         10         14  2.18207973E-06                    1_GWF-(1,26665) -3.81269231E-08                    1_GWF-(1,10653)
        465         10         15  1.86898668E-06                    1_GWF-(1,26543)  4.31556920E-08                    1_GWF-(1,11197)
        466         10         16 -1.75330083E-06                    1_GWF-(1,26486) -3.40096416E-08                     1_GWF-(1,9691)
        467         10         17 -1.83519683E-06                    1_GWF-(1,26487)  5.30156780E-08                     1_GWF-(1,9691)
        468         10         18 -2.01264326E-06                    1_GWF-(1,26486) -4.26168061E-08                    1_GWF-(1,10966)
        469         10         19 -1.72510512E-06                    1_GWF-(1,26649) -3.35548146E-08                    1_GWF-(1,10653)
        470         10         20 -1.84748566E-06                    1_GWF-(1,26622)  3.38082099E-08                     1_GWF-(1,9691)
        471         10         21 -1.35544669E-06                    1_GWF-(1,26623)  3.86459660E-08                     1_GWF-(1,9692)
        472         10         22  1.22453559E-06                    1_GWF-(1,26422)  5.91072135E-08                     1_GWF-(1,9691)
        473         10         23 -1.34793841E-06                    1_GWF-(1,26422) -5.33822017E-08                     1_GWF-(1,9691)
        474         10         24 -1.51411362E-06                    1_GWF-(1,26350)  5.91583664E-08                     1_GWF-(1,9691)
        475         10         25 -1.48126352E-06                    1_GWF-(1,26422)  3.18652905E-08                     1_GWF-(1,9692)
        476         10         26  1.37195793E-06                    1_GWF-(1,26486) -1.87675286E-08                    1_GWF-(1,10651)
        477         10         27 -1.23662284E-06                    1_GWF-(1,26486)  2.30954444E-08                     1_GWF-(1,9691)
        478         10         28  1.33452831E-06                    1_GWF-(1,26649) -2.94424024E-08                     1_GWF-(1,9691)
        479         10         29  1.17393174E-06                    1_GWF-(1,26487)  3.58154973E-08                     1_GWF-(1,9691)
        480         10         30  1.53755239E-06                    1_GWF-(1,26420)  2.03448531E-08                    1_GWF-(1,10966)
        481         10         31  1.31172746E-06                    1_GWF-(1,26421) -1.65698867E-08                    1_GWF-(1,10651)
        482         10         32  1.02301103E-06                    1_GWF-(1,26420)  2.70875166E-08                     1_GWF-(1,9691)
        483         10         33  8.23093123E-07                    1_GWF-(1,26421) -3.07071170E-08                     1_GWF-(1,9691)
        484         11          1 -5.66652693E-07                    1_GWF-(1,26421)  3.87453362E-08                     1_GWF-(1,9691)
 --------------------------------------------------------------------------------------------------------------------------------------



 MEMORY MANAGER TOTAL STORAGE BY DATA TYPE, IN MEGABYTES
 -------------------------------
                    ALLOCATED   
 DATA TYPE           MEMORY     
 -------------------------------
 Character        4.66090000E-02
 Logical          4.40000000E-05
 Integer          5.2037920     
 Real             11.901376     
 -------------------------------
 Total            17.151821     
 -------------------------------


 
 Run end date and time (yyyy/mm/dd hh:mm:ss): 2022/04/25 11:39:35
 Elapsed run time:  0.569 Seconds
 Normal termination of simulation.
