                                   MODFLOW 6
                U.S. GEOLOGICAL SURVEY MODULAR HYDROLOGIC MODEL
                            VERSION 6.2.2 07/30/2021

   MODFLOW 6 compiled Jul 31 2021 14:22:53 with IFORT compiler (ver. 19.10.3)

This software has been approved for release by the U.S. Geological 
Survey (USGS). Although the software has been subjected to rigorous 
review, the USGS reserves the right to update the software as needed 
pursuant to further analysis and review. No warranty, expressed or 
implied, is made by the USGS or the U.S. Government as to the 
functionality of the software and related material nor shall the 
fact of release constitute any such warranty. Furthermore, the 
software is released on condition that neither the USGS nor the U.S. 
Government shall be held liable for any damages resulting from its 
authorized or unauthorized use. Also refer to the USGS Water 
Resources Software User Rights Notice for complete use, copyright, 
and distribution information.


System command used to initiate simulation:
mf6

MODFLOW was compiled using uniform precision.

Real Variables
  KIND: 8
  TINY (smallest non-zero value):    2.225074-308
  HUGE (largest value):    1.797693+308
  PRECISION: 15
  BIT SIZE: 64

Integer Variables
  KIND: 4
  HUGE (largest value): 2147483647
  BIT SIZE: 32

Long Integer Variables
  KIND: 8
  HUGE (largest value): 9223372036854775807
  BIT SIZE: 64

Logical Variables
  KIND: 4
  BIT SIZE: 32
 

 OPENED mfsim.nam
 FILE TYPE:NAM   UNIT 1001   STATUS:OLD                 
 FORMAT:FORMATTED              ACCESS:SEQUENTIAL          
 ACTION:READ                

 # File generated by Flopy version 3.3.5 on 04/28/2022 at 15:58:45.

 READING SIMULATION OPTIONS
 END OF SIMULATION OPTIONS

 READING SIMULATION TIMING

 OPENED mfsim.tdis
 FILE TYPE:TDIS   UNIT 1002   STATUS:OLD                 
 FORMAT:FORMATTED              ACCESS:SEQUENTIAL          
 ACTION:READ                


 TDIS -- TEMPORAL DISCRETIZATION PACKAGE,
 VERSION 1 : 11/13/2014 - INPUT READ FROM UNIT 1002
 # File generated by Flopy version 3.3.5 on 04/28/2022 at 15:58:45.
 PROCESSING TDIS OPTIONS
    SIMULATION TIME UNIT IS SECONDS
 END OF TDIS OPTIONS
 PROCESSING TDIS DIMENSIONS
    1 STRESS PERIOD(S) IN SIMULATION
 END OF TDIS DIMENSIONS
 PROCESSING TDIS PERIODDATA


 STRESS PERIOD     LENGTH       TIME STEPS     MULTIPLIER FOR DELT
 ----------------------------------------------------------------------------
        1         3.000000          1                    1.000
 END OF TDIS PERIODDATA
 END OF SIMULATION TIMING

 READING SIMULATION MODELS
    GWF6 model ML will be created as model 1
 END OF SIMULATION MODELS

 READING SIMULATION EXCHANGES
 END OF SIMULATION EXCHANGES

 READING SOLUTIONGROUP

 Creating solution: SLN_1           

 OPENED mfsim.ims
 FILE TYPE:IMS   UNIT 1015   STATUS:OLD                 
 FORMAT:FORMATTED              ACCESS:SEQUENTIAL          
 ACTION:READ                

 END OF SIMULATION SOLUTIONGROUP

 IMS -- ITERATIVE MODEL SOLUTION PACKAGE, VERSION 6, 4/28/2017
         INPUT READ FROM UNIT 1015
 # File generated by Flopy version 3.3.5 on 04/28/2022 at 15:58:45.

 PROCESSING IMS OPTIONS
 END OF IMS OPTIONS

 PROCESSING IMS NONLINEAR
 END OF IMS NONLINEAR DATA
 ***UNDER-RELAXATION WILL NOT BE USED***
 
 ***IMS LINEAR SOLVER WILL BE USED***

 IMSLINEAR -- UNSTRUCTURED LINEAR SOLUTION PACKAGE, VERSION 8, 04/28/2017

 PROCESSING LINEAR DATA
 END OF LINEAR DATA
 
 OUTER ITERATION CONVERGENCE CRITERION    (DVCLOSE) =    0.100000E-04
 MAXIMUM NUMBER OF OUTER ITERATIONS        (MXITER) = 100
 SOLVER PRINTOUT INDEX                     (IPRIMS) = 2
 NONLINEAR ITERATION METHOD            (NONLINMETH) = 0
 LINEAR SOLUTION METHOD                   (LINMETH) = 1

       SOLUTION BY THE        CONJUGATE-GRADIENT       METHOD
 ------------------------------------------------------------------
 MAXIMUM OF 100 CALLS OF SOLUTION ROUTINE
 MAXIMUM OF 50 INTERNAL ITERATIONS PER CALL TO SOLUTION ROUTINE
 LINEAR ACCELERATION METHOD            = CG        
 MATRIX PRECONDITIONING TYPE           = INCOMPLETE LU       
 MATRIX SCALING APPROACH               = NO SCALING          
 MATRIX REORDERING APPROACH            = ORIGINAL ORDERING        
 NUMBER OF ORTHOGONALIZATIONS          = 0
 HEAD CHANGE CRITERION FOR CLOSURE     =    0.10000E-05
 RESIDUAL CHANGE CRITERION FOR CLOSURE =    0.10000E-04
 RESIDUAL CONVERGENCE OPTION           = 1
 RESIDUAL CONVERGENCE NORM             = INFINITY NORM S 
 RELAXATION FACTOR                     =    0.00000E+00



 
    Solving:  Stress period:     1    Time step:     1
 
1
                            STRESS PERIOD NO. 1, LENGTH =   3.000000    
                            -----------------------------------------------
                            NUMBER OF TIME STEPS = 1
                            MULTIPLIER FOR DELT =     1.000
                            INITIAL TIME STEP SIZE =   3.000000    

 SLN_1 OUTER ITERATION SUMMARY
 ----------------------------------------------------------------------------------------------------------
                                OUTER      INNER                    STEP   MAXIMUM CHANGE MODEL-(CELLID) OR
 OUTER ITERATION STEP       ITERATION  ITERATION  MAXIMUM CHANGE SUCCESS             MODEL-PACKAGE-(NUMBER)
 ----------------------------------------------------------------------------------------------------------
 Model                              1         50       25.059918                            1_GWF-(1,26519)
 Model                              2         50      -20.102775                            1_GWF-(1,26519)
 Model                              3         50      -1.9455734                            1_GWF-(1,21325)
 Model                              4         50      0.81596663                            1_GWF-(1,21573)
 Model                              5         50     -0.19544943                            1_GWF-(1,21221)
 Model                              6         50  9.37162147E-02                            1_GWF-(1,21669)
 Model                              7         50 -2.32859085E-02                            1_GWF-(1,21304)
 Model                              8         50  1.15309042E-02                            1_GWF-(1,21490)
 Model                              9         50 -2.95418145E-03                            1_GWF-(1,21304)
 Model                             10         50  1.45571531E-03                            1_GWF-(1,21488)
 Model                             11         50 -3.77663929E-04                            1_GWF-(1,21304)
 Model                             12         50  1.86413019E-04                            1_GWF-(1,21499)
 Model                             13         50 -4.87809465E-05                            1_GWF-(1,21304)
 Model                             14         32  2.66385931E-05                            1_GWF-(1,21508)
 Model                             15          1 -7.87723671E-07       *                    1_GWF-(1,26589)
 ----------------------------------------------------------------------------------------------------------


 15 CALLS TO NUMERICAL SOLUTION IN TIME STEP 1 STRESS PERIOD 1
 683 TOTAL ITERATIONS

 SLN_1 INNER ITERATION SUMMARY
 --------------------------------------------------------------------------------------------------------------------------------------
      TOTAL      OUTER      INNER                                                            MAXIMUM                                   
  ITERATION  ITERATION  ITERATION  MAXIMUM CHANGE      MAXIMUM CHANGE MODEL-(CELLID)        RESIDUAL    MAXIMUM RESIDUAL MODEL-(CELLID)
 --------------------------------------------------------------------------------------------------------------------------------------
          1          1          1      -11.761919                    1_GWF-(1,12785)      0.32866522                    1_GWF-(1,11169)
          2          1          2       5.5410664                    1_GWF-(1,26601)     -0.22713692                    1_GWF-(1,11169)
          3          1          3       5.7809105                    1_GWF-(1,26565)     -0.14001099                    1_GWF-(1,11178)
          4          1          4       5.9346768                    1_GWF-(1,26512)      0.16225053                    1_GWF-(1,11178)
          5          1          5       5.6140673                    1_GWF-(1,26611)     -0.12285924                    1_GWF-(1,11180)
          6          1          6       5.9499708                    1_GWF-(1,26649)     -0.11544324                    1_GWF-(1,11157)
          7          1          7       4.8494724                    1_GWF-(1,26622) -6.85039756E-02                    1_GWF-(1,11158)
          8          1          8       3.9192591                    1_GWF-(1,26665) -6.85652529E-02                    1_GWF-(1,11180)
          9          1          9      -3.2466398                    1_GWF-(1,26665)  5.22577993E-02                    1_GWF-(1,11051)
         10          1         10      -2.8471870                    1_GWF-(1,26666) -5.54496852E-02                    1_GWF-(1,11158)
         11          1         11       2.5638631                    1_GWF-(1,26544) -5.88878592E-02                    1_GWF-(1,11180)
         12          1         12      -2.8732607                    1_GWF-(1,26622)  3.95591143E-02                    1_GWF-(1,11058)
         13          1         13      -3.4548858                    1_GWF-(1,26649)  4.31019247E-02                    1_GWF-(1,11180)
         14          1         14      -2.6494745                    1_GWF-(1,26622) -4.08183494E-02                    1_GWF-(1,11180)
         15          1         15      -1.8088241                    1_GWF-(1,26623)  2.84335989E-02                    1_GWF-(1,11026)
         16          1         16       1.3409049                    1_GWF-(1,26623)  4.87755822E-02                    1_GWF-(1,11180)
         17          1         17       1.6265552                    1_GWF-(1,26665)  4.00288979E-02                    1_GWF-(1,11051)
         18          1         18       1.9781793                    1_GWF-(1,26588) -3.40729402E-02                    1_GWF-(1,11194)
         19          1         19      -2.1863833                    1_GWF-(1,26588)  3.99147221E-02                    1_GWF-(1,11180)
         20          1         20      -1.7784032                    1_GWF-(1,26543) -2.49080491E-02                    1_GWF-(1,11104)
         21          1         21      -1.3776588                    1_GWF-(1,26544) -2.96752125E-02                    1_GWF-(1,11194)
         22          1         22      -1.6744028                    1_GWF-(1,26486)  3.24335272E-02                    1_GWF-(1,11180)
         23          1         23      -2.0864072                    1_GWF-(1,26487) -2.62312083E-02                    1_GWF-(1,11106)
         24          1         24      -2.2605335                    1_GWF-(1,26486) -2.97649277E-02                    1_GWF-(1,11194)
         25          1         25       1.9601957                    1_GWF-(1,26420) -3.54438405E-02                    1_GWF-(1,11109)
         26          1         26       2.1408438                    1_GWF-(1,26487)  2.79393929E-02                    1_GWF-(1,11151)
         27          1         27       1.8470148                    1_GWF-(1,26420) -2.77294904E-02                    1_GWF-(1,11101)
         28          1         28       1.2389321                    1_GWF-(1,26487) -3.12361472E-02                    1_GWF-(1,11109)
         29          1         29      0.89644468                    1_GWF-(1,26420)  3.26595869E-02                    1_GWF-(1,11109)
         30          1         30     -0.85288357                    1_GWF-(1,26350)  3.37143346E-02                    1_GWF-(1,11110)
         31          1         31      -1.1615526                    1_GWF-(1,26422)  2.72295471E-02                    1_GWF-(1,11105)
         32          1         32      -1.2801734                    1_GWF-(1,26350)  2.38529709E-02                     1_GWF-(1,5617)
         33          1         33      -1.3983070                    1_GWF-(1,26422)  2.82404279E-02                    1_GWF-(1,11110)
         34          1         34      -1.1941459                    1_GWF-(1,26350)  2.69783057E-02                    1_GWF-(1,11105)
         35          1         35     -0.94824832                    1_GWF-(1,26422) -3.42458442E-02                    1_GWF-(1,11105)
         36          1         36     -0.83284372                    1_GWF-(1,25252) -3.83922321E-02                    1_GWF-(1,11114)
         37          1         37     -0.96438288                    1_GWF-(1,25240)  2.66761219E-02                    1_GWF-(1,11114)
         38          1         38      -1.0500580                    1_GWF-(1,25322)  3.12294657E-02                    1_GWF-(1,11103)
         39          1         39      -1.1469994                    1_GWF-(1,25455) -3.50915513E-02                    1_GWF-(1,11096)
         40          1         40      -1.0943324                    1_GWF-(1,20223)  3.63089969E-02                    1_GWF-(1,15107)
         41          1         41      -1.1314310                    1_GWF-(1,21381)  3.76153642E-02                    1_GWF-(1,11093)
         42          1         42      -1.3641627                    1_GWF-(1,21458) -4.09644025E-02                    1_GWF-(1,11093)
         43          1         43      -1.6955979                    1_GWF-(1,21462) -4.63248600E-02                    1_GWF-(1,11094)
         44          1         44      -1.8445247                    1_GWF-(1,21417)  4.76218949E-02                    1_GWF-(1,15107)
         45          1         45      -1.5215682                    1_GWF-(1,21437)  3.46567370E-02                    1_GWF-(1,11091)
         46          1         46      -1.2752468                    1_GWF-(1,20575)  3.10377915E-02                    1_GWF-(1,11093)
         47          1         47      -1.2606749                    1_GWF-(1,20920)  2.87486446E-02                    1_GWF-(1,11094)
         48          1         48      -1.2013921                    1_GWF-(1,26218) -2.54292028E-02                    1_GWF-(1,11094)
         49          1         49      -1.2029800                    1_GWF-(1,26217) -2.38402231E-02                    1_GWF-(1,11091)
         50          1         50      -1.3843738                    1_GWF-(1,26218)  2.05532907E-02                    1_GWF-(1,14801)
         51          2          1      -20.607577                    1_GWF-(1,26519) -8.69220791E-02                    1_GWF-(1,26519)
         52          2          2      -7.9401775                    1_GWF-(1,26569) -3.42940632E-02                    1_GWF-(1,26516)
         53          2          3      -4.0733684                    1_GWF-(1,26637)  2.13156088E-02                    1_GWF-(1,26516)
         54          2          4      -4.0199012                    1_GWF-(1,26665) -1.50061311E-02                    1_GWF-(1,26519)
         55          2          5      -2.6667120                    1_GWF-(1,26648)  1.28542758E-02                    1_GWF-(1,14799)
         56          2          6      -1.9748952                    1_GWF-(1,26586)  1.32768172E-02                    1_GWF-(1,14801)
         57          2          7      -1.7627991                    1_GWF-(1,26543)  1.17847154E-02                    1_GWF-(1,14799)
         58          2          8      -1.6296053                    1_GWF-(1,26486)  1.24124484E-02                    1_GWF-(1,14801)
         59          2          9      -1.3889497                    1_GWF-(1,26487)  1.07962033E-02                    1_GWF-(1,14799)
         60          2         10      -1.3451615                    1_GWF-(1,26218)  1.05337756E-02                    1_GWF-(1,14801)
         61          2         11      -1.3561219                    1_GWF-(1,26422)  9.50620175E-03                    1_GWF-(1,14801)
         62          2         12      -1.1088950                    1_GWF-(1,26217)  8.45566279E-03                    1_GWF-(1,14799)
         63          2         13      -1.0232728                    1_GWF-(1,26218)  8.75440856E-03                    1_GWF-(1,14801)
         64          2         14     -0.66752114                    1_GWF-(1,26649)  7.94765934E-03                    1_GWF-(1,14801)
         65          2         15     -0.61663278                    1_GWF-(1,26622)  7.75376878E-03                    1_GWF-(1,14801)
         66          2         16      0.93505038                    1_GWF-(1,26622)  8.24282033E-03                    1_GWF-(1,14801)
         67          2         17       1.2321367                    1_GWF-(1,26350)  7.65230881E-03                    1_GWF-(1,14799)
         68          2         18      0.95794777                    1_GWF-(1,26217)  8.07939829E-03                    1_GWF-(1,14801)
         69          2         19      0.70493921                    1_GWF-(1,26218)  8.12632223E-03                    1_GWF-(1,14801)
         70          2         20      0.51675326                    1_GWF-(1,26486)  7.73428997E-03                    1_GWF-(1,14801)
         71          2         21      0.83447962                    1_GWF-(1,26588)  8.23421422E-03                    1_GWF-(1,14801)
         72          2         22      0.93623759                    1_GWF-(1,26543)  7.84122118E-03                    1_GWF-(1,14801)
         73          2         23      0.60283728                    1_GWF-(1,25712)  8.16369259E-03                    1_GWF-(1,14801)
         74          2         24     -0.63571328                    1_GWF-(1,26422)  9.34355795E-03                    1_GWF-(1,14801)
         75          2         25     -0.87733700                    1_GWF-(1,26486)  9.42095901E-03                    1_GWF-(1,14799)
         76          2         26     -0.96288884                    1_GWF-(1,26487)  1.01188499E-02                    1_GWF-(1,14801)
         77          2         27     -0.61670463                    1_GWF-(1,26420)  1.03587304E-02                    1_GWF-(1,14801)
         78          2         28      0.34622690                    1_GWF-(1,25453)  1.01056722E-02                    1_GWF-(1,14799)
         79          2         29      0.40402875                    1_GWF-(1,26487)  1.09608733E-02                    1_GWF-(1,14801)
         80          2         30      0.42057740                    1_GWF-(1,26420)  1.05128178E-02                    1_GWF-(1,14799)
         81          2         31      0.36431899                    1_GWF-(1,25266)  1.11753122E-02                    1_GWF-(1,14801)
         82          2         32     -0.33704912                    1_GWF-(1,26157)  1.07883230E-02                    1_GWF-(1,14799)
         83          2         33     -0.30932246                    1_GWF-(1,26150)  1.04579548E-02                    1_GWF-(1,14801)
         84          2         34      0.26662908                    1_GWF-(1,26586)  9.03566323E-03                    1_GWF-(1,14799)
         85          2         35      0.34190268                    1_GWF-(1,26623)  8.23600140E-03                    1_GWF-(1,14801)
         86          2         36      0.27804139                    1_GWF-(1,26649)  6.62844486E-03                    1_GWF-(1,14799)
         87          2         37     -0.33303500                    1_GWF-(1,26350)  6.59538002E-03                    1_GWF-(1,14801)
         88          2         38     -0.32323499                    1_GWF-(1,26422)  6.29461731E-03                    1_GWF-(1,14801)
         89          2         39     -0.36077279                    1_GWF-(1,26649)  6.67148111E-03                    1_GWF-(1,14799)
         90          2         40     -0.40339761                    1_GWF-(1,26422)  7.12314821E-03                    1_GWF-(1,14801)
         91          2         41      0.28790369                    1_GWF-(1,26422)  7.12572519E-03                    1_GWF-(1,14799)
         92          2         42      0.32824324                    1_GWF-(1,26350)  7.70014885E-03                    1_GWF-(1,14801)
         93          2         43     -0.30175512                    1_GWF-(1,26350)  7.17929389E-03                    1_GWF-(1,14799)
         94          2         44      0.35020333                    1_GWF-(1,21281)  7.35529576E-03                    1_GWF-(1,14801)
         95          2         45      0.41649874                    1_GWF-(1,21264)  6.61123664E-03                    1_GWF-(1,26625)
         96          2         46      0.43913794                    1_GWF-(1,20917)  4.32897008E-03                    1_GWF-(1,14801)
         97          2         47      0.37281546                    1_GWF-(1,20232) -3.32878161E-03                    1_GWF-(1,15940)
         98          2         48     -0.31696832                    1_GWF-(1,26665)  7.64263093E-03                    1_GWF-(1,26625)
         99          2         49     -0.34011221                    1_GWF-(1,21377) -6.52397400E-03                    1_GWF-(1,26625)
        100          2         50     -0.43114701                    1_GWF-(1,21349)  6.34723958E-03                    1_GWF-(1,15109)
        101          3          1     -0.94652392                    1_GWF-(1,16214) -2.67585944E-03                    1_GWF-(1,11430)
        102          3          2     -0.55879409                    1_GWF-(1,16200)  3.72676770E-03                    1_GWF-(1,15109)
        103          3          3     -0.36291529                    1_GWF-(1,16233)  5.05340467E-03                    1_GWF-(1,15108)
        104          3          4     -0.30740390                    1_GWF-(1,16536) -4.92653920E-03                    1_GWF-(1,15108)
        105          3          5     -0.27872358                    1_GWF-(1,21263) -3.58552123E-03                    1_GWF-(1,15109)
        106          3          6     -0.28328730                    1_GWF-(1,21260) -2.76804804E-03                    1_GWF-(1,15108)
        107          3          7      0.23399035                    1_GWF-(1,16538)  2.35583730E-03                    1_GWF-(1,15107)
        108          3          8      0.16269152                    1_GWF-(1,16545)  1.52982122E-03                    1_GWF-(1,11430)
        109          3          9     -0.18409408                    1_GWF-(1,16537)  2.24731206E-03                    1_GWF-(1,14799)
        110          3         10     -0.22215414                    1_GWF-(1,16542)  2.82686269E-03                    1_GWF-(1,14801)
        111          3         11     -0.20352838                    1_GWF-(1,16569)  3.26881111E-03                    1_GWF-(1,14799)
        112          3         12      0.18036915                    1_GWF-(1,26350)  2.90419282E-03                    1_GWF-(1,15108)
        113          3         13      0.21326461                    1_GWF-(1,26422) -2.50775743E-03                    1_GWF-(1,15108)
        114          3         14      0.23590182                    1_GWF-(1,26350)  2.04456752E-03                    1_GWF-(1,15108)
        115          3         15      0.19722618                    1_GWF-(1,26422)  1.73270895E-03                    1_GWF-(1,14801)
        116          3         16     -0.13429112                    1_GWF-(1,11576)  1.75334380E-03                    1_GWF-(1,14799)
        117          3         17     -0.10880998                    1_GWF-(1,26649)  2.01091818E-03                    1_GWF-(1,15108)
        118          3         18      0.14486176                    1_GWF-(1,11576)  2.43131588E-03                    1_GWF-(1,15109)
        119          3         19     -0.11630748                    1_GWF-(1,26586)  3.42328550E-03                    1_GWF-(1,14801)
        120          3         20     -0.12667999                    1_GWF-(1,22396)  4.42001637E-03                    1_GWF-(1,14799)
        121          3         21     -0.11730838                    1_GWF-(1,16803)  3.87320044E-03                    1_GWF-(1,14801)
        122          3         22     -0.11766068                    1_GWF-(1,11714)  3.27736346E-03                    1_GWF-(1,14799)
        123          3         23     -0.11109300                    1_GWF-(1,25444)  3.01231571E-03                    1_GWF-(1,15107)
        124          3         24     -0.11224750                    1_GWF-(1,25492)  2.35801876E-03                    1_GWF-(1,14801)
        125          3         25      0.17772493                    1_GWF-(1,26487)  2.00923550E-03                    1_GWF-(1,14801)
        126          3         26      0.20467407                    1_GWF-(1,26420)  1.58550193E-03                    1_GWF-(1,14801)
        127          3         27      0.21208177                    1_GWF-(1,26487)  2.16417802E-03                    1_GWF-(1,15109)
        128          3         28      0.13791340                    1_GWF-(1,26420)  3.00648995E-03                    1_GWF-(1,15107)
        129          3         29     -0.13193736                    1_GWF-(1,26543) -1.99734174E-03                    1_GWF-(1,15107)
        130          3         30     -0.17903637                    1_GWF-(1,26588)  1.61769075E-03                    1_GWF-(1,15107)
        131          3         31     -0.19110786                    1_GWF-(1,26543)  1.95820209E-03                    1_GWF-(1,14801)
        132          3         32     -0.16218829                    1_GWF-(1,26588)  2.12330725E-03                    1_GWF-(1,14799)
        133          3         33     -0.13036089                    1_GWF-(1,26543)  2.95790436E-03                    1_GWF-(1,15107)
        134          3         34     -0.14418628                    1_GWF-(1,26350) -3.09285258E-03                    1_GWF-(1,15107)
        135          3         35     -0.14294792                    1_GWF-(1,24856)  2.54398590E-03                    1_GWF-(1,15107)
        136          3         36      0.15810011                    1_GWF-(1,26622)  1.49150661E-03                    1_GWF-(1,10342)
        137          3         37      0.14918335                    1_GWF-(1,26649)  2.19651690E-03                    1_GWF-(1,14938)
        138          3         38      0.14757749                    1_GWF-(1,26622)  3.61955695E-03                    1_GWF-(1,15107)
        139          3         39      0.12903599                    1_GWF-(1,26649)  2.08450121E-03                    1_GWF-(1,14938)
        140          3         40     -0.13976078                    1_GWF-(1,26665)  2.12590963E-03                    1_GWF-(1,14801)
        141          3         41      0.15131152                    1_GWF-(1,26665)  2.34427812E-03                    1_GWF-(1,14801)
        142          3         42     -0.17740198                    1_GWF-(1,26665) -3.24324933E-03                    1_GWF-(1,15107)
        143          3         43     -0.12360650                    1_GWF-(1,26666)  3.41282658E-03                    1_GWF-(1,15107)
        144          3         44      0.10086717                    1_GWF-(1,26540)  2.17060591E-03                    1_GWF-(1,14938)
        145          3         45      0.11542960                    1_GWF-(1,26587)  3.16557987E-03                    1_GWF-(1,15107)
        146          3         46      0.11640684                    1_GWF-(1,26648)  1.53108221E-03                    1_GWF-(1,14938)
        147          3         47      0.12477941                    1_GWF-(1,26649)  1.75524530E-03                    1_GWF-(1,15109)
        148          3         48 -9.70932821E-02                    1_GWF-(1,26218)  2.16091443E-03                    1_GWF-(1,15108)
        149          3         49 -8.96966867E-02                    1_GWF-(1,26217)  2.48180308E-03                    1_GWF-(1,14938)
        150          3         50     -0.13150602                    1_GWF-(1,26649)  4.18224546E-03                    1_GWF-(1,15107)
        151          4          1  7.78862467E-02                    1_GWF-(1,26218)  2.88738049E-03                    1_GWF-(1,14938)
        152          4          2 -7.70260933E-02                    1_GWF-(1,26218)  3.37240062E-03                    1_GWF-(1,15107)
        153          4          3 -8.59769569E-02                    1_GWF-(1,26217) -2.47583572E-03                    1_GWF-(1,15107)
        154          4          4 -9.49291879E-02                    1_GWF-(1,26218)  2.49867912E-03                    1_GWF-(1,15107)
        155          4          5 -7.62425998E-02                    1_GWF-(1,26217)  1.41488736E-03                    1_GWF-(1,14938)
        156          4          6 -7.58063146E-02                    1_GWF-(1,26218)  9.87299189E-04                    1_GWF-(1,15107)
        157          4          7  7.50647933E-02                    1_GWF-(1,26665)  8.05987238E-04                    1_GWF-(1,10342)
        158          4          8 -6.30652747E-02                    1_GWF-(1,26218)  1.16228686E-03                    1_GWF-(1,14801)
        159          4          9  8.09439980E-02                    1_GWF-(1,26665)  1.21335397E-03                    1_GWF-(1,14801)
        160          4         10 -8.58949487E-02                    1_GWF-(1,26665)  1.21302681E-03                    1_GWF-(1,14799)
        161          4         11  8.57872692E-02                    1_GWF-(1,26665)  8.11776335E-04                    1_GWF-(1,14801)
        162          4         12 -7.05905209E-02                    1_GWF-(1,26649)  1.14851096E-03                    1_GWF-(1,15107)
        163          4         13 -6.78089915E-02                    1_GWF-(1,26622)  1.15366143E-03                    1_GWF-(1,14938)
        164          4         14 -6.55059526E-02                    1_GWF-(1,26649)  1.14301215E-03                    1_GWF-(1,15107)
        165          4         15 -6.56568512E-02                    1_GWF-(1,26622)  6.80128699E-04                    1_GWF-(1,10342)
        166          4         16  6.51876991E-02                    1_GWF-(1,21411)  5.98076825E-04                    1_GWF-(1,14801)
        167          4         17  6.31329743E-02                    1_GWF-(1,24854)  1.11118856E-03                    1_GWF-(1,15107)
        168          4         18  5.82413003E-02                    1_GWF-(1,24701)  1.24812000E-03                    1_GWF-(1,14799)
        169          4         19  5.60447148E-02                    1_GWF-(1,26588)  1.28829808E-03                    1_GWF-(1,14801)
        170          4         20  5.31378937E-02                    1_GWF-(1,26543)  1.08114836E-03                    1_GWF-(1,14799)
        171          4         21 -5.31567824E-02                    1_GWF-(1,26543)  7.64071723E-04                    1_GWF-(1,14801)
        172          4         22 -5.43399045E-02                    1_GWF-(1,26487)  1.27471459E-03                    1_GWF-(1,15107)
        173          4         23 -5.51905908E-02                    1_GWF-(1,26486)  1.23384133E-03                    1_GWF-(1,14938)
        174          4         24 -5.72423953E-02                    1_GWF-(1,26487)  1.33728940E-03                    1_GWF-(1,15107)
        175          4         25 -5.47963424E-02                    1_GWF-(1,26486)  5.94698500E-04                    1_GWF-(1,14799)
        176          4         26  5.45629583E-02                    1_GWF-(1,26420)  7.31710209E-04                    1_GWF-(1,14938)
        177          4         27  4.15048183E-02                    1_GWF-(1,26487)  1.67573229E-03                    1_GWF-(1,15107)
        178          4         28  3.29371905E-02                    1_GWF-(1,26420) -1.50093739E-03                    1_GWF-(1,15107)
        179          4         29  3.97133003E-02                    1_GWF-(1,26543)  2.24263756E-03                    1_GWF-(1,15107)
        180          4         30  4.14397674E-02                    1_GWF-(1,26586) -1.66399109E-03                    1_GWF-(1,15107)
        181          4         31  4.23019731E-02                    1_GWF-(1,26623)  1.96201968E-03                    1_GWF-(1,15107)
        182          4         32  3.60819456E-02                    1_GWF-(1,26586) -1.60179746E-03                    1_GWF-(1,15107)
        183          4         33  2.68747556E-02                    1_GWF-(1,26623)  2.11562279E-03                    1_GWF-(1,15107)
        184          4         34  3.29737129E-02                    1_GWF-(1,26350)  1.11913980E-03                    1_GWF-(1,14938)
        185          4         35  3.86447577E-02                    1_GWF-(1,26422)  9.23103567E-04                    1_GWF-(1,15107)
        186          4         36  3.54012987E-02                    1_GWF-(1,26350)  6.44604324E-04                    1_GWF-(1,14801)
        187          4         37 -4.31587276E-02                    1_GWF-(1,26350)  8.16207209E-04                    1_GWF-(1,14801)
        188          4         38 -4.75380772E-02                    1_GWF-(1,26422)  1.26556996E-03                    1_GWF-(1,15107)
        189          4         39 -5.12321739E-02                    1_GWF-(1,26350) -1.29639026E-03                    1_GWF-(1,15107)
        190          4         40 -5.58320067E-02                    1_GWF-(1,26422)  1.55060046E-03                    1_GWF-(1,15107)
        191          4         41 -4.42768032E-02                    1_GWF-(1,26350) -9.24078269E-04                    1_GWF-(1,15107)
        192          4         42 -3.31401246E-02                    1_GWF-(1,26422)  1.05461166E-03                    1_GWF-(1,15107)
        193          4         43 -2.33394393E-02                    1_GWF-(1,26350)  4.65395364E-04                    1_GWF-(1,15022)
        194          4         44 -2.62061918E-02                    1_GWF-(1,16538)  4.44069146E-04                    1_GWF-(1,15109)
        195          4         45 -2.85016791E-02                    1_GWF-(1,16237) -3.76740571E-04                    1_GWF-(1,15109)
        196          4         46 -2.55232018E-02                    1_GWF-(1,16230)  5.47085373E-04                    1_GWF-(1,14799)
        197          4         47  2.80270714E-02                    1_GWF-(1,16536)  6.47379660E-04                    1_GWF-(1,14798)
        198          4         48  3.54515382E-02                    1_GWF-(1,16192)  7.00138978E-04                    1_GWF-(1,14938)
        199          4         49  4.30187078E-02                    1_GWF-(1,16200)  1.05928330E-03                    1_GWF-(1,15107)
        200          4         50  3.56336121E-02                    1_GWF-(1,26623) -2.17387687E-03                    1_GWF-(1,15107)
        201          5          1 -5.25116338E-02                    1_GWF-(1,16203)  1.25904144E-03                    1_GWF-(1,15107)
        202          5          2 -2.78433338E-02                    1_GWF-(1,16229) -1.47649985E-03                    1_GWF-(1,15107)
        203          5          3 -2.93669506E-02                    1_GWF-(1,16236)  1.47059131E-03                    1_GWF-(1,15107)
        204          5          4 -2.58616836E-02                    1_GWF-(1,16583) -9.43695415E-04                    1_GWF-(1,15107)
        205          5          5 -2.48659548E-02                    1_GWF-(1,20233)  6.19475016E-04                    1_GWF-(1,15107)
        206          5          6 -2.01908314E-02                    1_GWF-(1,16623) -3.95771147E-04                    1_GWF-(1,15107)
        207          5          7 -1.59537972E-02                    1_GWF-(1,26543)  3.06269537E-04                    1_GWF-(1,14801)
        208          5          8 -1.50616939E-02                    1_GWF-(1,19052)  4.18210433E-04                    1_GWF-(1,14798)
        209          5          9  1.83519803E-02                    1_GWF-(1,26422)  4.32527682E-04                    1_GWF-(1,14938)
        210          5         10  1.95254857E-02                    1_GWF-(1,26350)  8.55719030E-04                    1_GWF-(1,15107)
        211          5         11  2.04781259E-02                    1_GWF-(1,26422) -7.60695542E-04                    1_GWF-(1,15107)
        212          5         12  2.05464493E-02                    1_GWF-(1,26350)  1.01038936E-03                    1_GWF-(1,15107)
        213          5         13  2.35324523E-02                    1_GWF-(1,26422) -6.65318970E-04                    1_GWF-(1,15107)
        214          5         14  2.18218860E-02                    1_GWF-(1,26544)  5.74123515E-04                    1_GWF-(1,15107)
        215          5         15  2.11046653E-02                    1_GWF-(1,26486)  3.42483852E-04                    1_GWF-(1,14798)
        216          5         16  1.76771860E-02                    1_GWF-(1,26649)  3.87037556E-04                    1_GWF-(1,14799)
        217          5         17  1.91150055E-02                    1_GWF-(1,26486)  7.36239672E-04                    1_GWF-(1,15107)
        218          5         18  1.44100005E-02                    1_GWF-(1,26544) -3.85469402E-04                    1_GWF-(1,15107)
        219          5         19 -1.77748965E-02                    1_GWF-(1,26588)  2.32848517E-04                    1_GWF-(1,14799)
        220          5         20 -1.50558515E-02                    1_GWF-(1,26622)  5.96334486E-04                    1_GWF-(1,15107)
        221          5         21 -1.77297875E-02                    1_GWF-(1,26623)  6.23819458E-04                    1_GWF-(1,14938)
        222          5         22 -1.59149364E-02                    1_GWF-(1,25291)  1.02257294E-03                    1_GWF-(1,15107)
        223          5         23 -1.33437441E-02                    1_GWF-(1,25279) -9.01881542E-04                    1_GWF-(1,15107)
        224          5         24 -1.18420287E-02                    1_GWF-(1,25381)  1.03084592E-03                    1_GWF-(1,15107)
        225          5         25 -1.25865480E-02                    1_GWF-(1,25604) -9.04347862E-04                    1_GWF-(1,15107)
        226          5         26 -1.32868683E-02                    1_GWF-(1,25607)  6.96813199E-04                    1_GWF-(1,15107)
        227          5         27  1.60732952E-02                    1_GWF-(1,26622)  3.24507518E-04                    1_GWF-(1,14801)
        228          5         28  1.49840638E-02                    1_GWF-(1,26649)  3.32218334E-04                    1_GWF-(1,14938)
        229          5         29 -1.33841792E-02                    1_GWF-(1,26649)  6.18654346E-04                    1_GWF-(1,15107)
        230          5         30 -1.20353584E-02                    1_GWF-(1,24958) -5.72322547E-04                    1_GWF-(1,15107)
        231          5         31 -1.30391023E-02                    1_GWF-(1,24767)  6.51790909E-04                    1_GWF-(1,15107)
        232          5         32 -1.48788478E-02                    1_GWF-(1,24665) -3.48703782E-04                    1_GWF-(1,15107)
        233          5         33 -1.72881935E-02                    1_GWF-(1,24699)  3.11034498E-04                    1_GWF-(1,15107)
        234          5         34 -1.72875806E-02                    1_GWF-(1,24701)  1.52859236E-04                    1_GWF-(1,15107)
        235          5         35  1.47452673E-02                    1_GWF-(1,26543) -2.75551750E-04                    1_GWF-(1,15107)
        236          5         36  1.82174988E-02                    1_GWF-(1,26588)  3.50543247E-04                    1_GWF-(1,15107)
        237          5         37 -1.57483967E-02                    1_GWF-(1,21420) -3.32516050E-04                    1_GWF-(1,15107)
        238          5         38 -1.45627526E-02                    1_GWF-(1,24312)  2.91937041E-04                    1_GWF-(1,15107)
        239          5         39 -1.21470522E-02                    1_GWF-(1,24315)  1.77828105E-04                    1_GWF-(1,14798)
        240          5         40 -1.60302630E-02                    1_GWF-(1,26665) -2.21883787E-04                    1_GWF-(1,15107)
        241          5         41 -1.43713929E-02                    1_GWF-(1,26666)  2.75179683E-04                    1_GWF-(1,15107)
        242          5         42 -1.40858771E-02                    1_GWF-(1,26665)  2.67738734E-04                    1_GWF-(1,14801)
        243          5         43 -1.01051428E-02                    1_GWF-(1,26666)  2.15327052E-04                    1_GWF-(1,14799)
        244          5         44  1.06063890E-02                    1_GWF-(1,26217)  1.23287926E-04                    1_GWF-(1,15107)
        245          5         45  1.21630455E-02                    1_GWF-(1,26218) -2.14748573E-04                    1_GWF-(1,15107)
        246          5         46  9.51014816E-03                    1_GWF-(1,26217)  4.49152109E-04                    1_GWF-(1,15107)
        247          5         47 -1.09248208E-02                    1_GWF-(1,26217) -4.18914091E-04                    1_GWF-(1,15107)
        248          5         48 -1.11457645E-02                    1_GWF-(1,26218)  5.11292552E-04                    1_GWF-(1,15107)
        249          5         49  9.12635329E-03                    1_GWF-(1,26218) -3.65823087E-04                    1_GWF-(1,15107)
        250          5         50  9.07728348E-03                    1_GWF-(1,26217)  4.71690512E-04                    1_GWF-(1,15107)
        251          6          1  9.30293674E-03                    1_GWF-(1,26218) -3.86772158E-04                    1_GWF-(1,15107)
        252          6          2  8.88464046E-03                    1_GWF-(1,26217)  4.48370252E-04                    1_GWF-(1,15107)
        253          6          3  9.27203369E-03                    1_GWF-(1,26218) -3.03748561E-04                    1_GWF-(1,15107)
        254          6          4 -8.65596581E-03                    1_GWF-(1,26218)  2.94307064E-04                    1_GWF-(1,15107)
        255          6          5 -8.38436962E-03                    1_GWF-(1,26217)  1.16842730E-04                    1_GWF-(1,14938)
        256          6          6 -9.17105860E-03                    1_GWF-(1,26218)  7.22373268E-05                    1_GWF-(1,14848)
        257          6          7  7.83759514E-03                    1_GWF-(1,21672)  1.40460221E-04                    1_GWF-(1,15107)
        258          6          8  6.88446316E-03                    1_GWF-(1,21707)  1.41247259E-04                    1_GWF-(1,14938)
        259          6          9  9.06553193E-03                    1_GWF-(1,26665)  2.10405647E-04                    1_GWF-(1,15107)
        260          6         10  9.16819135E-03                    1_GWF-(1,26666) -1.29825978E-04                    1_GWF-(1,15107)
        261          6         11  9.68185419E-03                    1_GWF-(1,26665)  9.64849544E-05                    1_GWF-(1,14799)
        262          6         12  7.25536583E-03                    1_GWF-(1,24619)  1.87962993E-04                    1_GWF-(1,15107)
        263          6         13  8.27362973E-03                    1_GWF-(1,24313) -2.16880527E-04                    1_GWF-(1,15107)
        264          6         14  7.89351332E-03                    1_GWF-(1,21421)  2.34246843E-04                    1_GWF-(1,15107)
        265          6         15 -8.02540373E-03                    1_GWF-(1,26588) -1.35251348E-04                    1_GWF-(1,15107)
        266          6         16  7.26618435E-03                    1_GWF-(1,21411)  8.73652998E-05                    1_GWF-(1,15107)
        267          6         17  7.83951106E-03                    1_GWF-(1,24700)  1.60665148E-04                    1_GWF-(1,15107)
        268          6         18  6.95157391E-03                    1_GWF-(1,24702) -1.74574001E-04                    1_GWF-(1,15107)
        269          6         19  6.10449607E-03                    1_GWF-(1,24678)  3.19911769E-04                    1_GWF-(1,15107)
        270          6         20  5.20571756E-03                    1_GWF-(1,24994) -2.54410572E-04                    1_GWF-(1,15107)
        271          6         21  4.96985340E-03                    1_GWF-(1,24961)  2.48906835E-04                    1_GWF-(1,15107)
        272          6         22 -4.74540769E-03                    1_GWF-(1,26487)  1.28322537E-04                    1_GWF-(1,14938)
        273          6         23 -5.64329170E-03                    1_GWF-(1,26649)  8.64192555E-05                    1_GWF-(1,14801)
        274          6         24 -5.84444559E-03                    1_GWF-(1,26622)  2.20321242E-04                    1_GWF-(1,15107)
        275          6         25  4.86308963E-03                    1_GWF-(1,26487) -2.73963860E-04                    1_GWF-(1,15107)
        276          6         26 -4.07808287E-03                     1_GWF-(1,8335)  3.16790021E-04                    1_GWF-(1,15107)
        277          6         27  3.79696378E-03                    1_GWF-(1,11635) -2.54678604E-04                    1_GWF-(1,15107)
        278          6         28  3.63401671E-03                    1_GWF-(1,11741)  3.00478148E-04                    1_GWF-(1,15107)
        279          6         29  4.15419545E-03                    1_GWF-(1,26586) -1.70518794E-04                    1_GWF-(1,15107)
        280          6         30  4.30573057E-03                    1_GWF-(1,26648)  1.67082471E-04                    1_GWF-(1,15107)
        281          6         31  4.10995365E-03                    1_GWF-(1,26544)  6.93277735E-05                    1_GWF-(1,14799)
        282          6         32 -3.93604407E-03                    1_GWF-(1,26350)  9.17821498E-05                    1_GWF-(1,14801)
        283          6         33 -4.60795533E-03                    1_GWF-(1,26486)  1.20983724E-04                    1_GWF-(1,15107)
        284          6         34 -4.41196451E-03                    1_GWF-(1,26544) -1.23181815E-04                    1_GWF-(1,15107)
        285          6         35 -5.56562447E-03                    1_GWF-(1,26622)  8.52455889E-05                    1_GWF-(1,15107)
        286          6         36 -6.36362498E-03                    1_GWF-(1,26623)  9.31451935E-05                    1_GWF-(1,14801)
        287          6         37 -5.10583380E-03                    1_GWF-(1,26586)  9.14735059E-05                    1_GWF-(1,14938)
        288          6         38 -5.21272657E-03                    1_GWF-(1,26588)  1.88025674E-04                    1_GWF-(1,15107)
        289          6         39 -4.48931141E-03                    1_GWF-(1,26350) -1.27274470E-04                    1_GWF-(1,15107)
        290          6         40 -4.66379289E-03                    1_GWF-(1,26422)  1.40608872E-04                    1_GWF-(1,15107)
        291          6         41 -4.16459821E-03                    1_GWF-(1,26350)  5.92832010E-05                    1_GWF-(1,14938)
        292          6         42 -3.48040471E-03                    1_GWF-(1,20575)  6.87604235E-05                    1_GWF-(1,14801)
        293          6         43 -2.16950800E-03                    1_GWF-(1,16567)  5.02326860E-05                    1_GWF-(1,14798)
        294          6         44 -2.50566335E-03                    1_GWF-(1,16540) -6.69987673E-05                    1_GWF-(1,15107)
        295          6         45 -2.83627717E-03                    1_GWF-(1,16579)  1.02904103E-04                    1_GWF-(1,15107)
        296          6         46  2.79012267E-03                    1_GWF-(1,26350) -1.59260544E-04                    1_GWF-(1,15107)
        297          6         47  3.68857172E-03                    1_GWF-(1,16538)  2.03166616E-04                    1_GWF-(1,15107)
        298          6         48  3.93192189E-03                    1_GWF-(1,16194) -1.76794540E-04                    1_GWF-(1,15107)
        299          6         49  3.79494882E-03                    1_GWF-(1,16113)  1.71861240E-04                    1_GWF-(1,15107)
        300          6         50  3.38226829E-03                    1_GWF-(1,16203) -2.29440922E-04                    1_GWF-(1,15107)
        301          7          1 -3.35117073E-03                    1_GWF-(1,16203)  1.56145785E-04                    1_GWF-(1,15107)
        302          7          2 -3.56902160E-03                    1_GWF-(1,16230) -1.43502230E-04                    1_GWF-(1,15107)
        303          7          3 -3.62279720E-03                    1_GWF-(1,16236)  1.57463495E-04                    1_GWF-(1,15107)
        304          7          4 -3.13262002E-03                    1_GWF-(1,16538) -9.60879073E-05                    1_GWF-(1,15107)
        305          7          5 -2.92680383E-03                    1_GWF-(1,20575)  5.17496153E-05                    1_GWF-(1,15107)
        306          7          6 -2.53410216E-03                    1_GWF-(1,20228)  3.73554257E-05                    1_GWF-(1,14802)
        307          7          7 -1.89943557E-03                    1_GWF-(1,19010)  3.80608910E-05                    1_GWF-(1,14801)
        308          7          8 -2.05445353E-03                    1_GWF-(1,19052)  5.42964609E-05                    1_GWF-(1,14798)
        309          7          9  2.27214921E-03                    1_GWF-(1,26422)  5.27655917E-05                    1_GWF-(1,14938)
        310          7         10  2.65073746E-03                    1_GWF-(1,26350)  1.09625937E-04                    1_GWF-(1,15107)
        311          7         11  2.76439721E-03                    1_GWF-(1,26422)  8.15025205E-05                    1_GWF-(1,14938)
        312          7         12  2.63100979E-03                    1_GWF-(1,26350)  1.11720299E-04                    1_GWF-(1,15107)
        313          7         13  3.10090295E-03                    1_GWF-(1,26588)  5.20260915E-05                    1_GWF-(1,14938)
        314          7         14  2.96444512E-03                    1_GWF-(1,26586)  4.20954162E-05                    1_GWF-(1,14801)
        315          7         15  3.45345269E-03                    1_GWF-(1,26623)  5.27079693E-05                    1_GWF-(1,15107)
        316          7         16  2.71015270E-03                    1_GWF-(1,26622) -7.12253835E-05                    1_GWF-(1,15107)
        317          7         17  2.13589981E-03                    1_GWF-(1,26544)  4.86428124E-05                    1_GWF-(1,15107)
        318          7         18  2.16412692E-03                    1_GWF-(1,26486)  3.53210791E-05                    1_GWF-(1,14801)
        319          7         19 -1.78613389E-03                    1_GWF-(1,26486) -4.60463723E-05                    1_GWF-(1,15107)
        320          7         20 -1.95477777E-03                    1_GWF-(1,26544)  7.98400678E-05                    1_GWF-(1,15107)
        321          7         21 -1.83207469E-03                    1_GWF-(1,26486) -7.50753131E-05                    1_GWF-(1,15107)
        322          7         22 -1.85981772E-03                    1_GWF-(1,25292)  1.22545942E-04                    1_GWF-(1,15107)
        323          7         23 -1.87366203E-03                    1_GWF-(1,26588) -8.57542400E-05                    1_GWF-(1,15107)
        324          7         24 -1.61365788E-03                    1_GWF-(1,26487)  7.34372627E-05                    1_GWF-(1,15107)
        325          7         25 -2.33408914E-03                    1_GWF-(1,26420)  3.11488270E-05                    1_GWF-(1,14801)
        326          7         26 -2.48717957E-03                    1_GWF-(1,26487) -4.76865263E-05                    1_GWF-(1,15107)
        327          7         27 -2.11383556E-03                    1_GWF-(1,26420)  9.35649294E-05                    1_GWF-(1,15107)
        328          7         28 -1.50693897E-03                    1_GWF-(1,25073)  6.09013107E-05                    1_GWF-(1,14938)
        329          7         29 -1.52892403E-03                    1_GWF-(1,24434)  6.10236339E-05                    1_GWF-(1,15107)
        330          7         30 -1.52705808E-03                    1_GWF-(1,24961) -2.73344005E-05                    1_GWF-(1,15107)
        331          7         31 -1.90933981E-03                    1_GWF-(1,26649)  3.34287867E-05                    1_GWF-(1,14801)
        332          7         32 -1.72950304E-03                    1_GWF-(1,26622)  7.83956671E-05                    1_GWF-(1,15107)
        333          7         33 -1.96505757E-03                    1_GWF-(1,24678) -6.30721224E-05                    1_GWF-(1,15107)
        334          7         34 -2.11339543E-03                    1_GWF-(1,24701)  7.75622440E-05                    1_GWF-(1,15107)
        335          7         35 -1.80216763E-03                    1_GWF-(1,24689)  4.07747472E-05                    1_GWF-(1,14938)
        336          7         36 -1.76869107E-03                    1_GWF-(1,21424)  4.10546237E-05                    1_GWF-(1,15107)
        337          7         37 -1.78258570E-03                    1_GWF-(1,21401) -2.72569568E-05                    1_GWF-(1,15107)
        338          7         38 -1.75060949E-03                    1_GWF-(1,24312)  2.15948192E-05                    1_GWF-(1,15107)
        339          7         39 -1.41225616E-03                    1_GWF-(1,26218)  1.56319747E-05                    1_GWF-(1,15107)
        340          7         40 -1.63771239E-03                    1_GWF-(1,26665) -3.17722094E-05                    1_GWF-(1,15107)
        341          7         41 -1.66852494E-03                    1_GWF-(1,26666)  3.02818708E-05                    1_GWF-(1,15107)
        342          7         42 -1.80768336E-03                    1_GWF-(1,26665)  2.60610245E-05                    1_GWF-(1,14801)
        343          7         43 -1.32295989E-03                    1_GWF-(1,26666)  2.28680184E-05                    1_GWF-(1,14799)
        344          7         44  1.14900386E-03                    1_GWF-(1,26217)  2.21853851E-05                    1_GWF-(1,15107)
        345          7         45  1.49459807E-03                    1_GWF-(1,26218)  2.70326487E-05                    1_GWF-(1,14938)
        346          7         46  1.29587312E-03                    1_GWF-(1,26217)  5.28900273E-05                    1_GWF-(1,15107)
        347          7         47  1.25406274E-03                    1_GWF-(1,26218) -4.56786632E-05                    1_GWF-(1,15107)
        348          7         48 -1.28062296E-03                    1_GWF-(1,26218)  6.54603393E-05                    1_GWF-(1,15107)
        349          7         49  1.19974656E-03                    1_GWF-(1,26218) -4.86373463E-05                    1_GWF-(1,15107)
        350          7         50  1.19646756E-03                    1_GWF-(1,26217)  4.86689971E-05                    1_GWF-(1,15107)
        351          8          1  1.14235679E-03                    1_GWF-(1,26218) -4.44833597E-05                    1_GWF-(1,15107)
        352          8          2 -1.11671512E-03                    1_GWF-(1,26218)  4.95462728E-05                    1_GWF-(1,15107)
        353          8          3  1.10973705E-03                    1_GWF-(1,26218) -3.13707209E-05                    1_GWF-(1,15107)
        354          8          4 -1.03655599E-03                    1_GWF-(1,26218)  3.09142665E-05                    1_GWF-(1,15107)
        355          8          5 -1.03945131E-03                    1_GWF-(1,26217)  1.34415345E-05                    1_GWF-(1,14938)
        356          8          6 -1.11291535E-03                    1_GWF-(1,26218)  7.84493094E-06                    1_GWF-(1,14799)
        357          8          7  9.37382724E-04                    1_GWF-(1,21672)  1.74474919E-05                    1_GWF-(1,15107)
        358          8          8  8.93465785E-04                    1_GWF-(1,20931)  1.81172469E-05                    1_GWF-(1,14938)
        359          8          9  1.06329029E-03                    1_GWF-(1,26665)  2.34173899E-05                    1_GWF-(1,15107)
        360          8         10  9.91580366E-04                    1_GWF-(1,26666) -1.38595368E-05                    1_GWF-(1,15107)
        361          8         11  9.12578456E-04                    1_GWF-(1,26622)  6.86512061E-06                    1_GWF-(1,14796)
        362          8         12  9.45965923E-04                    1_GWF-(1,24313)  2.18357651E-05                    1_GWF-(1,15107)
        363          8         13  1.05211172E-03                    1_GWF-(1,24313) -2.23670597E-05                    1_GWF-(1,15107)
        364          8         14  9.31185433E-04                    1_GWF-(1,21419)  1.73526496E-05                    1_GWF-(1,15107)
        365          8         15 -9.03605291E-04                    1_GWF-(1,26588)  9.28375414E-06                    1_GWF-(1,14801)
        366          8         16  8.22295851E-04                    1_GWF-(1,21414)  1.52321675E-05                    1_GWF-(1,14938)
        367          8         17  9.74672120E-04                    1_GWF-(1,24689)  3.11794677E-05                    1_GWF-(1,15107)
        368          8         18  8.72997711E-04                    1_GWF-(1,24702) -2.36186274E-05                    1_GWF-(1,15107)
        369          8         19  7.78384477E-04                    1_GWF-(1,24678)  4.03079542E-05                    1_GWF-(1,15107)
        370          8         20  6.61526243E-04                    1_GWF-(1,25036) -3.08024075E-05                    1_GWF-(1,15107)
        371          8         21  6.55464694E-04                    1_GWF-(1,24961)  3.05072091E-05                    1_GWF-(1,15107)
        372          8         22  5.54466655E-04                    1_GWF-(1,24961) -2.31651417E-05                    1_GWF-(1,15107)
        373          8         23  5.31600358E-04                    1_GWF-(1,25116)  2.69850138E-05                    1_GWF-(1,15107)
        374          8         24 -6.82562270E-04                    1_GWF-(1,26543)  9.43624157E-06                    1_GWF-(1,14801)
        375          8         25 -7.42094130E-04                    1_GWF-(1,26588) -1.52112051E-05                    1_GWF-(1,15107)
        376          8         26 -5.66957434E-04                    1_GWF-(1,26665)  2.95558491E-05                    1_GWF-(1,15107)
        377          8         27  4.24443023E-04                    1_GWF-(1,11635) -2.47675188E-05                    1_GWF-(1,15107)
        378          8         28  5.03630494E-04                    1_GWF-(1,26487)  2.78906195E-05                    1_GWF-(1,15107)
        379          8         29  7.73803197E-04                    1_GWF-(1,26420)  9.17134863E-06                    1_GWF-(1,14799)
        380          8         30  8.05421615E-04                    1_GWF-(1,26487)  8.56800599E-06                    1_GWF-(1,14938)
        381          8         31  6.66882085E-04                    1_GWF-(1,26486)  2.02835867E-05                    1_GWF-(1,15107)
        382          8         32  4.49220655E-04                    1_GWF-(1,26487) -1.84782486E-05                    1_GWF-(1,15107)
        383          8         33  3.79864888E-04                     1_GWF-(1,8013)  1.63184506E-05                    1_GWF-(1,15107)
        384          8         34 -4.56719053E-04                    1_GWF-(1,26486)  9.29851005E-06                    1_GWF-(1,14799)
        385          8         35 -4.50274679E-04                    1_GWF-(1,26586)  1.03450051E-05                    1_GWF-(1,14799)
        386          8         36 -5.55653917E-04                    1_GWF-(1,26486)  1.34171415E-05                    1_GWF-(1,15107)
        387          8         37 -6.01808532E-04                    1_GWF-(1,26350) -1.21495249E-05                    1_GWF-(1,15107)
        388          8         38 -6.35145288E-04                    1_GWF-(1,26422)  2.14687630E-05                    1_GWF-(1,15107)
        389          8         39 -5.50659382E-04                    1_GWF-(1,26350)  1.33268005E-05                    1_GWF-(1,14938)
        390          8         40 -5.48056233E-04                    1_GWF-(1,26422)  1.50506242E-05                    1_GWF-(1,15107)
        391          8         41 -4.78248353E-04                    1_GWF-(1,20584)  6.67397234E-06                    1_GWF-(1,14799)
        392          8         42 -4.32010940E-04                    1_GWF-(1,20575)  9.02533695E-06                    1_GWF-(1,14799)
        393          8         43  2.53637341E-04                    1_GWF-(1,26586)  6.45869910E-06                    1_GWF-(1,15107)
        394          8         44 -2.75282875E-04                    1_GWF-(1,16538) -8.38439685E-06                    1_GWF-(1,15107)
        395          8         45  3.29079083E-04                    1_GWF-(1,26486)  1.17521503E-05                    1_GWF-(1,15107)
        396          8         46  3.58466362E-04                    1_GWF-(1,26350) -1.71930082E-05                    1_GWF-(1,15107)
        397          8         47  4.36233977E-04                    1_GWF-(1,16538)  2.30433337E-05                    1_GWF-(1,15107)
        398          8         48  4.54455969E-04                    1_GWF-(1,16236) -1.97010952E-05                    1_GWF-(1,15107)
        399          8         49  4.47185819E-04                    1_GWF-(1,16113)  1.94979811E-05                    1_GWF-(1,15107)
        400          8         50  3.70752155E-04                    1_GWF-(1,16203) -2.51445491E-05                    1_GWF-(1,15107)
        401          9          1 -3.68792333E-04                    1_GWF-(1,16203)  1.78214011E-05                    1_GWF-(1,15107)
        402          9          2 -4.26044872E-04                    1_GWF-(1,16230) -1.50179231E-05                    1_GWF-(1,15107)
        403          9          3 -4.17625968E-04                    1_GWF-(1,16236)  1.73782559E-05                    1_GWF-(1,15107)
        404          9          4 -3.69555445E-04                    1_GWF-(1,26422) -9.53663282E-06                    1_GWF-(1,15107)
        405          9          5 -3.44135787E-04                    1_GWF-(1,20575)  5.84933991E-06                    1_GWF-(1,14801)
        406          9          6 -3.90191936E-04                    1_GWF-(1,26588)  4.57359230E-06                    1_GWF-(1,14801)
        407          9          7 -3.70706157E-04                    1_GWF-(1,26543) -5.03504340E-06                    1_GWF-(1,15107)
        408          9          8 -3.87279227E-04                    1_GWF-(1,26623)  7.96500427E-06                    1_GWF-(1,15107)
        409          9          9 -2.99601165E-04                    1_GWF-(1,26622)  5.64708248E-06                    1_GWF-(1,14799)
        410          9         10  2.66605023E-04                    1_GWF-(1,20577)  3.72454747E-06                    1_GWF-(1,14802)
        411          9         11  2.12254445E-04                    1_GWF-(1,21261)  7.32821764E-06                    1_GWF-(1,15107)
        412          9         12  2.38540596E-04                    1_GWF-(1,26486)  6.82986601E-06                    1_GWF-(1,14938)
        413          9         13  2.52297948E-04                    1_GWF-(1,26544)  1.15534573E-05                    1_GWF-(1,15107)
        414          9         14  2.76168559E-04                    1_GWF-(1,26422)  8.52211394E-06                    1_GWF-(1,14938)
        415          9         15  2.59080122E-04                    1_GWF-(1,26350)  1.15062911E-05                    1_GWF-(1,15107)
        416          9         16 -2.95538941E-04                    1_GWF-(1,26350) -8.47766720E-06                    1_GWF-(1,15107)
        417          9         17 -2.84138317E-04                    1_GWF-(1,26422)  4.50043914E-06                    1_GWF-(1,15107)
        418          9         18  2.41135452E-04                    1_GWF-(1,26422)  4.34724024E-06                    1_GWF-(1,14801)
        419          9         19 -1.95569358E-04                     1_GWF-(1,8021) -5.93157137E-06                    1_GWF-(1,15107)
        420          9         20 -3.22833029E-04                    1_GWF-(1,26649)  8.38756741E-06                    1_GWF-(1,15107)
        421          9         21 -3.42121284E-04                    1_GWF-(1,26622)  6.04970843E-06                    1_GWF-(1,14938)
        422          9         22 -3.46548653E-04                    1_GWF-(1,26486)  3.33899080E-06                    1_GWF-(1,10342)
        423          9         23 -2.68114133E-04                    1_GWF-(1,26544)  6.72922294E-06                    1_GWF-(1,15107)
        424          9         24 -2.53934925E-04                    1_GWF-(1,26486) -7.50947340E-06                    1_GWF-(1,15107)
        425          9         25 -1.89211165E-04                    1_GWF-(1,24742)  1.10441737E-05                    1_GWF-(1,15107)
        426          9         26  2.34905652E-04                     1_GWF-(1,8339) -8.44089137E-06                    1_GWF-(1,15107)
        427          9         27  1.91819103E-04                     1_GWF-(1,8339)  7.04862597E-06                    1_GWF-(1,15107)
        428          9         28 -1.87625670E-04                    1_GWF-(1,25073)  4.32863896E-06                    1_GWF-(1,14798)
        429          9         29 -1.91171716E-04                    1_GWF-(1,24434) -4.70559354E-06                    1_GWF-(1,15107)
        430          9         30 -1.99350740E-04                    1_GWF-(1,24961)  7.13826994E-06                    1_GWF-(1,15107)
        431          9         31 -1.95250669E-04                    1_GWF-(1,24983)  6.80385252E-06                    1_GWF-(1,14938)
        432          9         32 -2.03169579E-04                    1_GWF-(1,24679)  9.46408070E-06                    1_GWF-(1,15107)
        433          9         33 -2.37898497E-04                    1_GWF-(1,24678)  3.96177015E-06                    1_GWF-(1,14799)
        434          9         34  2.51288929E-04                    1_GWF-(1,26665)  2.85045392E-06                    1_GWF-(1,14938)
        435          9         35 -2.44827978E-04                    1_GWF-(1,26665)  8.53605523E-06                    1_GWF-(1,15107)
        436          9         36 -1.96649603E-04                    1_GWF-(1,21424) -7.22449472E-06                    1_GWF-(1,15107)
        437          9         37 -2.12679786E-04                    1_GWF-(1,21400)  7.31074468E-06                    1_GWF-(1,15107)
        438          9         38 -2.11554649E-04                    1_GWF-(1,24311) -5.76489198E-06                    1_GWF-(1,15107)
        439          9         39 -1.89184359E-04                    1_GWF-(1,24586)  6.48633643E-06                    1_GWF-(1,15107)
        440          9         40 -1.74381307E-04                    1_GWF-(1,20915) -5.32497689E-06                    1_GWF-(1,15107)
        441          9         41 -1.89263543E-04                    1_GWF-(1,20234)  2.83488974E-06                    1_GWF-(1,15107)
        442          9         42 -1.78222859E-04                    1_GWF-(1,20574)  3.24808046E-06                    1_GWF-(1,14801)
        443          9         43 -1.69115654E-04                     1_GWF-(1,8450)  2.54142040E-06                    1_GWF-(1,14799)
        444          9         44  1.53045106E-04                    1_GWF-(1,26217)  3.06297706E-06                    1_GWF-(1,15107)
        445          9         45  1.85977164E-04                    1_GWF-(1,26218)  3.28760491E-06                    1_GWF-(1,14938)
        446          9         46  1.53281496E-04                    1_GWF-(1,26588)  5.28335172E-06                    1_GWF-(1,15107)
        447          9         47  2.03859326E-04                    1_GWF-(1,26622)  3.20936351E-06                    1_GWF-(1,14801)
        448          9         48  2.02618359E-04                    1_GWF-(1,26623)  2.81844689E-06                    1_GWF-(1,14799)
        449          9         49  1.50997016E-04                    1_GWF-(1,26543)  4.74221387E-06                    1_GWF-(1,15107)
        450          9         50  1.15552728E-04                    1_GWF-(1,26218) -4.21177280E-06                    1_GWF-(1,15107)
        451         10          1 -1.65548119E-04                    1_GWF-(1,26218)  9.34271810E-06                    1_GWF-(1,15107)
        452         10          2  1.66180024E-04                    1_GWF-(1,26218) -3.51644312E-06                    1_GWF-(1,15107)
        453         10          3 -1.67485220E-04                    1_GWF-(1,26623)  3.09549319E-06                    1_GWF-(1,14801)
        454         10          4 -1.80776312E-04                    1_GWF-(1,26622)  5.94921825E-06                    1_GWF-(1,15107)
        455         10          5 -1.37373401E-04                    1_GWF-(1,26588)  3.33079867E-06                    1_GWF-(1,14938)
        456         10          6 -1.50386690E-04                    1_GWF-(1,26218)  2.74912241E-06                    1_GWF-(1,15107)
        457         10          7  1.19253347E-04                    1_GWF-(1,21672)  1.53322485E-06                    1_GWF-(1,14799)
        458         10          8  1.21193992E-04                    1_GWF-(1,20931)  1.98286851E-06                    1_GWF-(1,14801)
        459         10          9  1.39326585E-04                    1_GWF-(1,20571)  3.30541656E-06                    1_GWF-(1,15107)
        460         10         10  1.34929179E-04                    1_GWF-(1,20583) -4.92564518E-06                    1_GWF-(1,15107)
        461         10         11  1.12998514E-04                    1_GWF-(1,24349)  5.42368362E-06                    1_GWF-(1,15107)
        462         10         12  1.30339413E-04                    1_GWF-(1,24586) -5.11252649E-06                    1_GWF-(1,15107)
        463         10         13  1.36639412E-04                    1_GWF-(1,24311)  6.10316527E-06                    1_GWF-(1,15107)
        464         10         14  1.23799611E-04                    1_GWF-(1,21425) -5.85408223E-06                    1_GWF-(1,15107)
        465         10         15  1.15129118E-04                    1_GWF-(1,21424)  6.02693839E-06                    1_GWF-(1,15107)
        466         10         16  1.16231162E-04                    1_GWF-(1,24688)  2.29945472E-06                    1_GWF-(1,14938)
        467         10         17 -1.17678333E-04                    1_GWF-(1,26665)  1.89020471E-06                    1_GWF-(1,14799)
        468         10         18  1.07311840E-04                    1_GWF-(1,26665)  4.58302602E-06                    1_GWF-(1,15107)
        469         10         19  8.78675636E-05                    1_GWF-(1,24742)  3.50293670E-06                    1_GWF-(1,14938)
        470         10         20  8.19600685E-05                    1_GWF-(1,24988)  4.12969442E-06                    1_GWF-(1,15107)
        471         10         21  8.01687807E-05                    1_GWF-(1,24961) -3.22922377E-06                    1_GWF-(1,15107)
        472         10         22 -7.59745252E-05                    1_GWF-(1,26420)  1.74700777E-06                    1_GWF-(1,15107)
        473         10         23 -6.93749456E-05                    1_GWF-(1,26543)  2.46037104E-06                    1_GWF-(1,15107)
        474         10         24 -7.75521908E-05                     1_GWF-(1,8450) -3.42477098E-06                    1_GWF-(1,15107)
        475         10         25 -9.03431091E-05                     1_GWF-(1,8339)  4.50633137E-06                    1_GWF-(1,15107)
        476         10         26 -7.25679849E-05                     1_GWF-(1,8333) -3.24531633E-06                    1_GWF-(1,15107)
        477         10         27  8.37283894E-05                    1_GWF-(1,26486)  2.58239715E-06                    1_GWF-(1,15107)
        478         10         28  8.38547654E-05                    1_GWF-(1,26622)  1.05088715E-06                    1_GWF-(1,15107)
        479         10         29  1.05659840E-04                    1_GWF-(1,26649) -2.02634001E-06                    1_GWF-(1,15107)
        480         10         30  1.03214265E-04                    1_GWF-(1,26622)  3.11953830E-06                    1_GWF-(1,15107)
        481         10         31  8.34960016E-05                    1_GWF-(1,26649) -2.18437974E-06                    1_GWF-(1,15107)
        482         10         32  5.30916513E-05                     1_GWF-(1,8011)  1.26510134E-06                    1_GWF-(1,14801)
        483         10         33 -5.83339243E-05                    1_GWF-(1,26422)  1.07039726E-06                    1_GWF-(1,14798)
        484         10         34  6.58445325E-05                    1_GWF-(1,26422) -2.07134177E-06                    1_GWF-(1,15107)
        485         10         35 -6.84782128E-05                    1_GWF-(1,26422)  3.04905376E-06                    1_GWF-(1,15107)
        486         10         36 -6.61165284E-05                    1_GWF-(1,26350) -2.36421167E-06                    1_GWF-(1,15107)
        487         10         37 -7.24831028E-05                    1_GWF-(1,26422)  2.96984202E-06                    1_GWF-(1,15107)
        488         10         38 -6.08129248E-05                    1_GWF-(1,26350)  1.83694285E-06                    1_GWF-(1,14938)
        489         10         39 -5.17045842E-05                    1_GWF-(1,26486)  1.50622880E-06                    1_GWF-(1,15107)
        490         10         40 -4.47021210E-05                    1_GWF-(1,20611)  6.92169997E-07                    1_GWF-(1,14823)
        491         10         41 -5.77840360E-05                    1_GWF-(1,20583)  1.16080484E-06                    1_GWF-(1,14799)
        492         10         42  4.92333750E-05                    1_GWF-(1,26622)  1.89927174E-06                    1_GWF-(1,15107)
        493         10         43  6.40393101E-05                    1_GWF-(1,26623) -1.10675910E-06                    1_GWF-(1,15107)
        494         10         44  6.00993322E-05                    1_GWF-(1,26543)  6.45357618E-07                    1_GWF-(1,14801)
        495         10         45  5.90978836E-05                    1_GWF-(1,26588)  9.24418284E-07                    1_GWF-(1,15107)
        496         10         46  5.07244373E-05                    1_GWF-(1,26420) -1.95307700E-06                    1_GWF-(1,15107)
        497         10         47  5.07446847E-05                    1_GWF-(1,16581)  2.96360192E-06                    1_GWF-(1,15107)
        498         10         48  5.75087822E-05                    1_GWF-(1,16236) -2.64714760E-06                    1_GWF-(1,15107)
        499         10         49  5.59994601E-05                    1_GWF-(1,16233)  3.17534995E-06                    1_GWF-(1,15107)
        500         10         50  3.91409280E-05                    1_GWF-(1,16130) -4.45770348E-06                    1_GWF-(1,15107)
        501         11          1 -4.18606000E-05                    1_GWF-(1,16196)  3.45856478E-06                    1_GWF-(1,15107)
        502         11          2 -5.31217483E-05                    1_GWF-(1,16230) -2.62056039E-06                    1_GWF-(1,15107)
        503         11          3 -5.20187788E-05                    1_GWF-(1,16236)  2.39772203E-06                    1_GWF-(1,15107)
        504         11          4 -4.44961825E-05                    1_GWF-(1,16585) -1.18301390E-06                    1_GWF-(1,15107)
        505         11          5 -4.41095176E-05                    1_GWF-(1,20575)  6.39545092E-07                    1_GWF-(1,14799)
        506         11          6 -4.71186245E-05                    1_GWF-(1,26588)  6.00023404E-07                    1_GWF-(1,14801)
        507         11          7 -4.48633682E-05                    1_GWF-(1,26543) -7.63081209E-07                    1_GWF-(1,15107)
        508         11          8 -4.78884030E-05                    1_GWF-(1,26623)  1.01301634E-06                    1_GWF-(1,15107)
        509         11          9 -3.65518050E-05                    1_GWF-(1,26622)  6.84384143E-07                    1_GWF-(1,14801)
        510         11         10  3.19391592E-05                    1_GWF-(1,20578)  4.39431002E-07                    1_GWF-(1,14824)
        511         11         11 -2.67833138E-05                    1_GWF-(1,21026)  1.29603972E-06                    1_GWF-(1,15107)
        512         11         12  2.92444747E-05                    1_GWF-(1,26422)  1.31038403E-06                    1_GWF-(1,14938)
        513         11         13  3.60479566E-05                    1_GWF-(1,26350)  1.90576701E-06                    1_GWF-(1,15107)
        514         11         14  4.28910799E-05                    1_GWF-(1,26422) -1.11914567E-06                    1_GWF-(1,15107)
        515         11         15  4.72857162E-05                    1_GWF-(1,26588)  8.44248499E-07                    1_GWF-(1,15107)
        516         11         16  4.39963366E-05                    1_GWF-(1,26543)  6.85658383E-07                    1_GWF-(1,14798)
        517         11         17  4.47201997E-05                    1_GWF-(1,26588) -1.37879267E-06                    1_GWF-(1,15107)
        518         11         18 -3.26228323E-05                    1_GWF-(1,26588)  1.71913461E-06                    1_GWF-(1,15107)
        519         11         19 -2.66582515E-05                    1_GWF-(1,26589) -1.49629734E-06                    1_GWF-(1,15107)
        520         11         20 -3.29514557E-05                    1_GWF-(1,26486)  8.37440822E-07                    1_GWF-(1,15107)
        521         11         21 -3.23091714E-05                    1_GWF-(1,26544)  3.70282712E-07                    1_GWF-(1,14798)
        522         11         22 -3.14075567E-05                    1_GWF-(1,26422)  6.26461329E-07                    1_GWF-(1,15022)
        523         11         23 -2.68384606E-05                    1_GWF-(1,26350)  1.48432159E-06                    1_GWF-(1,15107)
        524         11         24 -2.65288085E-05                    1_GWF-(1,26422) -1.49332149E-06                    1_GWF-(1,15107)
        525         11         25  2.42869981E-05                     1_GWF-(1,8338)  1.78998766E-06                    1_GWF-(1,15107)
        526         11         26  3.23146548E-05                     1_GWF-(1,8339) -9.79820710E-07                    1_GWF-(1,15107)
        527         11         27 -3.02821652E-05                    1_GWF-(1,26486)  4.67017546E-07                    1_GWF-(1,14801)
        528         11         28  2.58051612E-05                    1_GWF-(1,26486)  1.31755043E-06                    1_GWF-(1,15107)
        529         11         29 -2.52001235E-05                    1_GWF-(1,24434) -1.40344376E-06                    1_GWF-(1,15107)
        530         11         30 -2.66471780E-05                    1_GWF-(1,24961)  1.40580267E-06                    1_GWF-(1,15107)
[...]
        543         11         43 -2.32283705E-05                    1_GWF-(1,26623)  4.25434419E-07                    1_GWF-(1,14938)
        544         11         44 -1.59357919E-05                    1_GWF-(1,26622)  3.30904689E-07                    1_GWF-(1,15107)
        545         11         45  1.73345363E-05                    1_GWF-(1,26217)  2.69720239E-07                    1_GWF-(1,15939)
        546         11         46  1.90218102E-05                    1_GWF-(1,26218)  3.49213498E-07                    1_GWF-(1,14799)
        547         11         47  1.72132611E-05                    1_GWF-(1,24428)  6.89283918E-07                    1_GWF-(1,15107)
        548         11         48  1.94937193E-05                    1_GWF-(1,26218) -8.95467177E-07                    1_GWF-(1,15107)
        549         11         49  2.39113307E-05                    1_GWF-(1,26217)  1.39193518E-06                    1_GWF-(1,15107)
        550         11         50  2.14035593E-05                    1_GWF-(1,26218) -7.19098080E-07                    1_GWF-(1,15107)
        551         12          1 -2.26994313E-05                    1_GWF-(1,26218)  1.57887674E-06                    1_GWF-(1,15107)
        552         12          2 -2.53826916E-05                    1_GWF-(1,26217) -8.66326247E-07                    1_GWF-(1,15107)
        553         12          3 -1.78273844E-05                    1_GWF-(1,26218)  4.39912211E-07                    1_GWF-(1,15107)
        554         12          4 -1.73001908E-05                    1_GWF-(1,26589)  2.15664971E-07                    1_GWF-(1,14823)
        555         12          5 -2.34109125E-05                    1_GWF-(1,26588)  3.81648621E-07                    1_GWF-(1,14938)
        556         12          6 -1.97879928E-05                    1_GWF-(1,26487)  5.61713036E-07                    1_GWF-(1,15107)
        557         12          7  1.57009084E-05                    1_GWF-(1,26589)  2.06673934E-07                    1_GWF-(1,14799)
        558         12          8  1.59186557E-05                    1_GWF-(1,20931)  2.54848209E-07                    1_GWF-(1,14801)
        559         12          9  1.81513457E-05                    1_GWF-(1,20571)  3.65003231E-07                    1_GWF-(1,15107)
        560         12         10  1.66812955E-05                    1_GWF-(1,20578) -5.91611590E-07                    1_GWF-(1,15107)
        561         12         11  1.69364215E-05                    1_GWF-(1,26622)  3.92411581E-07                    1_GWF-(1,15107)
        562         12         12  1.75773980E-05                    1_GWF-(1,26649)  1.04477838E-07                    1_GWF-(1,26649)
        563         12         13  1.64147660E-05                    1_GWF-(1,24311) -3.84429020E-07                    1_GWF-(1,15107)
        564         12         14  1.55723274E-05                    1_GWF-(1,21419)  6.49204398E-07                    1_GWF-(1,15107)
        565         12         15  1.51913836E-05                    1_GWF-(1,21426) -6.61485664E-07                    1_GWF-(1,15107)
        566         12         16  1.47869161E-05                    1_GWF-(1,24688)  9.38085161E-07                    1_GWF-(1,15107)
        567         12         17  1.47931540E-05                    1_GWF-(1,24689) -5.39560239E-07                    1_GWF-(1,15107)
        568         12         18 -1.31552498E-05                    1_GWF-(1,26486)  2.65569297E-07                    1_GWF-(1,14798)
        569         12         19 -1.29134545E-05                    1_GWF-(1,26487)  6.29315094E-07                    1_GWF-(1,15107)
        570         12         20  1.07613987E-05                    1_GWF-(1,24750) -6.76681616E-07                    1_GWF-(1,15107)
        571         12         21  1.07125534E-05                    1_GWF-(1,24961)  6.68676004E-07                    1_GWF-(1,15107)
        572         12         22  9.77145933E-06                    1_GWF-(1,24961) -5.85670009E-07                    1_GWF-(1,15107)
        573         12         23  8.97600978E-06                    1_GWF-(1,25114)  5.53467115E-07                    1_GWF-(1,15107)
        574         12         24 -9.82494250E-06                     1_GWF-(1,8452)  1.30115108E-07                    1_GWF-(1,14801)
        575         12         25 -1.21040309E-05                    1_GWF-(1,26665) -3.34516526E-07                    1_GWF-(1,15107)
        576         12         26 -1.07766271E-05                     1_GWF-(1,8336)  7.13212351E-07                    1_GWF-(1,15107)
        577         12         27 -6.86681532E-06                     1_GWF-(1,8040) -7.45339558E-07                    1_GWF-(1,15107)
        578         12         28 -7.52268559E-06                     1_GWF-(1,8017)  9.20996851E-07                    1_GWF-(1,15107)
        579         12         29  7.41587104E-06                    1_GWF-(1,11712) -7.01951845E-07                    1_GWF-(1,15107)
        580         12         30  6.52153446E-06                    1_GWF-(1,19855)  6.08564784E-07                    1_GWF-(1,15107)
        581         12         31  8.58477372E-06                     1_GWF-(1,8035) -4.13390326E-07                    1_GWF-(1,15107)
        582         12         32  7.11378341E-06                     1_GWF-(1,8010)  1.95207948E-07                    1_GWF-(1,15107)
        583         12         33 -6.57597702E-06                    1_GWF-(1,26486)  1.37052192E-07                    1_GWF-(1,14799)
        584         12         34 -7.72316262E-06                    1_GWF-(1,26544) -2.80272016E-07                    1_GWF-(1,15107)
        585         12         35 -9.21124510E-06                    1_GWF-(1,26486)  4.85081066E-07                    1_GWF-(1,15107)
        586         12         36 -9.45531671E-06                    1_GWF-(1,26544) -4.05456225E-07                    1_GWF-(1,15107)
        587         12         37 -1.14813052E-05                    1_GWF-(1,26486)  4.39156266E-07                    1_GWF-(1,15107)
        588         12         38 -1.05084984E-05                    1_GWF-(1,26544)  1.85209771E-07                    1_GWF-(1,14938)
        589         12         39 -1.15849485E-05                    1_GWF-(1,26486)  1.22341683E-07                    1_GWF-(1,14938)
        590         12         40 -1.01263404E-05                    1_GWF-(1,26487)  3.58522479E-07                    1_GWF-(1,15107)
        591         12         41 -8.88155080E-06                    1_GWF-(1,26420) -2.37780745E-07                    1_GWF-(1,15107)
        592         12         42 -7.02058726E-06                    1_GWF-(1,26422)  1.86450940E-07                    1_GWF-(1,15107)
        593         12         43 -4.21938626E-06                    1_GWF-(1,20229)  9.33701093E-08                    1_GWF-(1,14799)
        594         12         44  4.91734952E-06                    1_GWF-(1,26648) -1.34659114E-07                    1_GWF-(1,15107)
        595         12         45  7.15280572E-06                    1_GWF-(1,26649)  2.26295326E-07                    1_GWF-(1,15107)
        596         12         46 -8.74832166E-06                    1_GWF-(1,26649) -1.85415222E-07                    1_GWF-(1,15107)
        597         12         47  8.37226602E-06                    1_GWF-(1,26649)  1.05944335E-07                    1_GWF-(1,14801)
        598         12         48  6.75641926E-06                    1_GWF-(1,26622)  2.01204814E-07                    1_GWF-(1,15107)
        599         12         49  7.45684729E-06                    1_GWF-(1,16233) -2.80579237E-07                    1_GWF-(1,15107)
        600         12         50  6.04019794E-06                    1_GWF-(1,16196)  4.35524243E-07                    1_GWF-(1,15107)
        601         13          1  7.06727595E-06                    1_GWF-(1,26623) -4.80640246E-07                    1_GWF-(1,15107)
        602         13          2 -7.37048875E-06                    1_GWF-(1,26420)  1.56059999E-07                    1_GWF-(1,15107)
        603         13          3 -7.51071950E-06                    1_GWF-(1,26487)  3.24291828E-07                    1_GWF-(1,15107)
        604         13          4 -6.19041242E-06                    1_GWF-(1,26486) -4.63959452E-07                    1_GWF-(1,15107)
        605         13          5 -5.60491509E-06                    1_GWF-(1,20233)  3.84474907E-07                    1_GWF-(1,15107)
        606         13          6 -6.11840937E-06                    1_GWF-(1,26649) -2.33391136E-07                    1_GWF-(1,15107)
        607         13          7 -5.72308135E-06                    1_GWF-(1,26648)  8.00443134E-08                    1_GWF-(1,14801)
        608         13          8 -6.18166609E-06                    1_GWF-(1,26649)  2.55249901E-07                    1_GWF-(1,15107)
        609         13          9 -5.75379214E-06                    1_GWF-(1,26622) -2.96886482E-07                    1_GWF-(1,15107)
        610         13         10 -3.89152190E-06                    1_GWF-(1,26623)  2.69008937E-07                    1_GWF-(1,15107)
        611         13         11  4.79404192E-06                    1_GWF-(1,26487)  7.48613435E-08                    1_GWF-(1,14938)
        612         13         12  6.04018508E-06                    1_GWF-(1,26486)  9.98236411E-08                    1_GWF-(1,14938)
        613         13         13  6.34461321E-06                    1_GWF-(1,26544)  2.44544533E-07                    1_GWF-(1,15107)
        614         13         14  7.35986967E-06                    1_GWF-(1,26486)  1.08414268E-07                    1_GWF-(1,14938)
        615         13         15  6.60868362E-06                    1_GWF-(1,26588)  8.64537568E-08                    1_GWF-(1,14801)
        616         13         16  5.05650589E-06                    1_GWF-(1,26543)  2.05553586E-07                    1_GWF-(1,15107)
        617         13         17 -4.01911012E-06                    1_GWF-(1,20221) -3.04510999E-07                    1_GWF-(1,15107)
        618         13         18  3.61235372E-06                    1_GWF-(1,26350)  3.74719331E-07                    1_GWF-(1,15107)
        619         13         19  3.78428131E-06                    1_GWF-(1,26422) -3.55438264E-07                    1_GWF-(1,15107)
        620         13         20 -3.95038581E-06                     1_GWF-(1,8035)  2.65269866E-07                    1_GWF-(1,15107)
        621         13         21 -4.24767456E-06                    1_GWF-(1,26544) -1.46750382E-07                    1_GWF-(1,15107)
        622         13         22 -4.24730937E-06                    1_GWF-(1,26422)  6.60847923E-08                    1_GWF-(1,15107)
        623         13         23 -3.81426824E-06                    1_GWF-(1,26350)  1.49622406E-07                    1_GWF-(1,15107)
        624         13         24 -3.75490176E-06                    1_GWF-(1,26422) -2.17660259E-07                    1_GWF-(1,15107)
        625         13         25  3.31409879E-06                     1_GWF-(1,8333)  3.15322352E-07                    1_GWF-(1,15107)
        626         13         26  4.46321301E-06                     1_GWF-(1,8444) -2.62937256E-07                    1_GWF-(1,15107)
        627         13         27  3.76513688E-06                     1_GWF-(1,8450)  2.64466279E-07                    1_GWF-(1,15107)
        628         13         28 -3.22227802E-06                    1_GWF-(1,25114) -1.17516857E-07                    1_GWF-(1,15107)
        629         13         29  3.73053905E-06                    1_GWF-(1,26665)  7.76399282E-08                    1_GWF-(1,14799)
        630         13         30 -3.31706819E-06                    1_GWF-(1,24961)  1.59213825E-07                    1_GWF-(1,15107)
        631         13         31 -3.30428424E-06                    1_GWF-(1,24751) -2.29408663E-07                    1_GWF-(1,15107)
        632         13         32 -3.36821066E-06                    1_GWF-(1,24752)  2.61819856E-07                    1_GWF-(1,15107)
        633         13         33  3.84994817E-06                    1_GWF-(1,26486)  6.85018176E-08                    1_GWF-(1,14799)
        634         13         34 -3.72816174E-06                    1_GWF-(1,24698) -1.40311329E-07                    1_GWF-(1,15107)
        635         13         35 -3.58420230E-06                    1_GWF-(1,24687)  3.14966082E-07                    1_GWF-(1,15107)
        636         13         36 -3.13770893E-06                    1_GWF-(1,21485) -2.90784110E-07                    1_GWF-(1,15107)
        637         13         37 -3.13357260E-06                    1_GWF-(1,21405)  2.85868457E-07                    1_GWF-(1,15107)
        638         13         38 -3.13608195E-06                    1_GWF-(1,24313) -1.59074657E-07                    1_GWF-(1,15107)
        639         13         39 -3.99893725E-06                    1_GWF-(1,26649) -3.24370961E-08                    1_GWF-(1,11176)
        640         13         40 -4.80354085E-06                    1_GWF-(1,26622)  1.96695059E-07                    1_GWF-(1,15107)
        641         13         41 -3.63359530E-06                    1_GWF-(1,26649) -2.42289603E-07                    1_GWF-(1,15107)
        642         13         42 -2.99103870E-06                    1_GWF-(1,20572)  1.90819840E-07                    1_GWF-(1,15107)
        643         13         43 -2.63576254E-06                     1_GWF-(1,8445)  8.03293696E-08                    1_GWF-(1,14938)
        644         13         44  2.91918953E-06                    1_GWF-(1,26588)  3.49464344E-08                    1_GWF-(1,14935)
        645         13         45 -3.59211355E-06                    1_GWF-(1,26588)  1.18476842E-07                    1_GWF-(1,15107)
        646         13         46  4.11415620E-06                    1_GWF-(1,26588) -1.02906413E-07                    1_GWF-(1,15107)
        647         13         47  2.95739384E-06                    1_GWF-(1,26543)  1.27386653E-07                    1_GWF-(1,15107)
        648         13         48  2.46816400E-06                    1_GWF-(1,26588)  7.42267701E-08                    1_GWF-(1,14801)
        649         13         49  2.12212087E-06                    1_GWF-(1,24757)  4.22424836E-08                    1_GWF-(1,14799)
        650         13         50  1.81229806E-06                    1_GWF-(1,24743)  4.45525028E-08                    1_GWF-(1,15107)
        651         14          1  1.80473583E-06                    1_GWF-(1,26218) -5.19972372E-08                    1_GWF-(1,15107)
        652         14          2 -2.17796806E-06                    1_GWF-(1,26218)  5.80784439E-08                    1_GWF-(1,14801)
        653         14          3 -2.18973506E-06                    1_GWF-(1,26217)  7.07996282E-08                    1_GWF-(1,14799)
        654         14          4 -2.59646661E-06                    1_GWF-(1,26218)  4.97004253E-08                    1_GWF-(1,15107)
        655         14          5 -2.32288841E-06                    1_GWF-(1,26588)  2.53376189E-08                    1_GWF-(1,14932)
        656         14          6  2.41507648E-06                    1_GWF-(1,26588)  2.94981737E-08                    1_GWF-(1,11176)
        657         14          7  2.29078609E-06                    1_GWF-(1,26589)  3.99670935E-08                    1_GWF-(1,15107)
        658         14          8  2.54901043E-06                    1_GWF-(1,26588)  3.90412692E-08                    1_GWF-(1,14799)
        659         14          9  2.21419596E-06                    1_GWF-(1,20571)  2.96230427E-08                    1_GWF-(1,14801)
        660         14         10  2.20872826E-06                    1_GWF-(1,21261)  2.30054466E-08                    1_GWF-(1,14822)
        661         14         11  1.70165592E-06                    1_GWF-(1,24340)  2.13923660E-08                    1_GWF-(1,14799)
        662         14         12  1.98867509E-06                    1_GWF-(1,24586)  2.71348638E-08                    1_GWF-(1,15107)
        663         14         13  2.02956447E-06                    1_GWF-(1,24313)  2.05010242E-08                    1_GWF-(1,14799)
        664         14         14 -1.97123139E-06                    1_GWF-(1,26622)  2.28338647E-08                    1_GWF-(1,14799)
        665         14         15  1.84153132E-06                    1_GWF-(1,21437)  3.67270497E-08                    1_GWF-(1,15107)
        666         14         16  1.89965328E-06                    1_GWF-(1,24686)  2.96615382E-08                    1_GWF-(1,14938)
        667         14         17  1.95328237E-06                    1_GWF-(1,24689)  5.66380728E-08                    1_GWF-(1,15107)
        668         14         18  1.62548839E-06                    1_GWF-(1,24758)  4.01314610E-08                    1_GWF-(1,14799)
        669         14         19  1.79386642E-06                    1_GWF-(1,26666)  3.57860521E-08                    1_GWF-(1,15107)
        670         14         20  1.96620016E-06                    1_GWF-(1,26665)  3.11346159E-08                    1_GWF-(1,14799)
        671         14         21  1.31264694E-06                    1_GWF-(1,24988)  3.50937950E-08                    1_GWF-(1,14799)
        672         14         22  1.19059678E-06                    1_GWF-(1,24429)  5.95474806E-08                    1_GWF-(1,15107)
        673         14         23  1.19774729E-06                    1_GWF-(1,25114) -6.22574732E-08                    1_GWF-(1,15107)
        674         14         24 -1.46507747E-06                     1_GWF-(1,8450)  9.89979531E-08                    1_GWF-(1,15107)
        675         14         25 -1.49379424E-06                     1_GWF-(1,8339) -8.25350507E-08                    1_GWF-(1,15107)
        676         14         26 -1.14699964E-06                    1_GWF-(1,26649)  7.64025565E-08                    1_GWF-(1,15107)
        677         14         27  1.43182525E-06                    1_GWF-(1,26649)  2.93871485E-08                    1_GWF-(1,14938)
        678         14         28  1.71898829E-06                    1_GWF-(1,26622)  3.44350511E-08                    1_GWF-(1,14938)
        679         14         29  1.64448909E-06                    1_GWF-(1,26623)  7.88897174E-08                    1_GWF-(1,15107)
        680         14         30  1.16207883E-06                    1_GWF-(1,26622) -8.95279396E-08                    1_GWF-(1,15107)
        681         14         31  1.15118049E-06                     1_GWF-(1,8035)  8.10902232E-08                    1_GWF-(1,15107)
        682         14         32  8.92654458E-07                     1_GWF-(1,8009) -5.02025815E-08                    1_GWF-(1,15107)
        683         15          1 -7.87723670E-07                    1_GWF-(1,26589)  4.88204305E-08                    1_GWF-(1,15107)
 --------------------------------------------------------------------------------------------------------------------------------------



 MEMORY MANAGER TOTAL STORAGE BY DATA TYPE, IN MEGABYTES
 -------------------------------
                    ALLOCATED   
 DATA TYPE           MEMORY     
 -------------------------------
 Character        4.66090000E-02
 Logical          4.40000000E-05
 Integer          5.2037920     
 Real             11.901376     
 -------------------------------
 Total            17.151821     
 -------------------------------


 
 Run end date and time (yyyy/mm/dd hh:mm:ss): 2022/05/24 11:58:52
 Elapsed run time:  0.656 Seconds
 Normal termination of simulation.
