                                   MODFLOW 6
                U.S. GEOLOGICAL SURVEY MODULAR HYDROLOGIC MODEL
                          GROUNDWATER FLOW MODEL (GWF)
                            VERSION 6.2.2 07/30/2021

   MODFLOW 6 compiled Jul 31 2021 14:22:53 with IFORT compiler (ver. 19.10.3)

This software has been approved for release by the U.S. Geological 
Survey (USGS). Although the software has been subjected to rigorous 
review, the USGS reserves the right to update the software as needed 
pursuant to further analysis and review. No warranty, expressed or 
implied, is made by the USGS or the U.S. Government as to the 
functionality of the software and related material nor shall the 
fact of release constitute any such warranty. Furthermore, the 
software is released on condition that neither the USGS nor the U.S. 
Government shall be held liable for any damages resulting from its 
authorized or unauthorized use. Also refer to the USGS Water 
Resources Software User Rights Notice for complete use, copyright, 
and distribution information.


System command used to initiate simulation:
mf6

MODFLOW was compiled using uniform precision.

Real Variables
  KIND: 8
  TINY (smallest non-zero value):    2.225074-308
  HUGE (largest value):    1.797693+308
  PRECISION: 15
  BIT SIZE: 64

Integer Variables
  KIND: 4
  HUGE (largest value): 2147483647
  BIT SIZE: 32

Long Integer Variables
  KIND: 8
  HUGE (largest value): 9223372036854775807
  BIT SIZE: 64

Logical Variables
  KIND: 4
  BIT SIZE: 32
 

 OPENED ./ml.disv
 FILE TYPE:DISV6                  UNIT 1005   STATUS:OLD                 
 FORMAT:FORMATTED              ACCESS:SEQUENTIAL          
 ACTION:READ                


 OPENED ./ml.ic
 FILE TYPE:IC6                    UNIT 1006   STATUS:OLD                 
 FORMAT:FORMATTED              ACCESS:SEQUENTIAL          
 ACTION:READ                


 OPENED ./ml.npf
 FILE TYPE:NPF6                   UNIT 1007   STATUS:OLD                 
 FORMAT:FORMATTED              ACCESS:SEQUENTIAL          
 ACTION:READ                


 OPENED ./ml.ghb
 FILE TYPE:GHB6                   UNIT 1008   STATUS:OLD                 
 FORMAT:FORMATTED              ACCESS:SEQUENTIAL          
 ACTION:READ                


 OPENED ./ml.rcha
 FILE TYPE:RCH6                   UNIT 1009   STATUS:OLD                 
 FORMAT:FORMATTED              ACCESS:SEQUENTIAL          
 ACTION:READ                


 OPENED ./ml.obs
 FILE TYPE:OBS6                   UNIT 1010   STATUS:OLD                 
 FORMAT:FORMATTED              ACCESS:SEQUENTIAL          
 ACTION:READ                


 OPENED ./ml.oc
 FILE TYPE:OC6                    UNIT 1011   STATUS:OLD                 
 FORMAT:FORMATTED              ACCESS:SEQUENTIAL          
 ACTION:READ                


 OPENED ml.wel
 FILE TYPE:WEL6                   UNIT 1012   STATUS:OLD                 
 FORMAT:FORMATTED              ACCESS:SEQUENTIAL          
 ACTION:READ                


 OPENED ml.drn
 FILE TYPE:DRN6                   UNIT 1013   STATUS:OLD                 
 FORMAT:FORMATTED              ACCESS:SEQUENTIAL          
 ACTION:READ                


 OPENED ml.riv
 FILE TYPE:RIV6                   UNIT 1014   STATUS:OLD                 
 FORMAT:FORMATTED              ACCESS:SEQUENTIAL          
 ACTION:READ                


 DISV -- VERTEX GRID DISCRETIZATION PACKAGE, VERSION 1 : 12/23/2015 - INPUT READ FROM UNIT 1005


 # File generated by Flopy version 3.3.5 on 04/28/2022 at 15:58:45.

 PROCESSING DISCRETIZATION OPTIONS
    MODEL LENGTH UNIT IS METERS
    XORIGIN SPECIFIED AS     405575.681000000    
    YORIGIN SPECIFIED AS     6423306.54000000    
 END OF DISCRETIZATION OPTIONS

 PROCESSING DISCRETIZATION DIMENSIONS
   NLAY = 1
   NCPL = 26674
   NVERT = 27090
 END OF DISCRETIZATION DIMENSIONS

 PROCESSING GRIDDATA
 END PROCESSING GRIDDATA

 PROCESSING VERTICES
   SUCCESSFULLY READ 27090 (X,Y) COORDINATES
   MINIMUM X COORDINATE =     405575.681000000    
   MAXIMUM X COORDINATE =     413975.681000000    
   MINIMUM Y COORDINATE =     6423306.54000000    
   MAXIMUM Y COORDINATE =     6432506.54000000    
 END PROCESSING VERTICES

 PROCESSING CELL2D
   SUCCESSFULLY READ 26674 CELL2D INFORMATION ENTRIES
   MINIMUM X CELL CENTER =     405675.681000000    
   MAXIMUM X CELL CENTER =     413875.681000000    
   MINIMUM Y CELL CENTER =     6423406.54000000    
   MAXIMUM Y CELL CENTER =     6432406.54000000    
   MAXIMUM NUMBER OF CELL2D VERTICES IS 6 FOR CELL 208
 END PROCESSING VERTICES

 NPF -- NODE PROPERTY FLOW PACKAGE, VERSION 1, 3/30/2015 INPUT READ FROM UNIT 1007


 # File generated by Flopy version 3.3.5 on 04/28/2022 at 15:58:48.
 PROCESSING NPF OPTIONS
    CELL-BY-CELL FLOW INFORMATION WILL BE SAVED TO BINARY FILE WHENEVER ICBCFL IS NOT ZERO.
    SPECIFIC DISCHARGE WILL BE CALCULATED AT CELL CENTERS AND WRITTEN TO DATA-SPDIS IN BUDGET FILE WHEN REQUESTED.
 END OF NPF OPTIONS

 WEL   -- WEL PACKAGE, VERSION 8, 2/22/2014 INPUT READ FROM UNIT 1012
 # File generated by Flopy version 3.3.5 on 04/28/2022 at 15:58:48.

 PROCESSING WEL OPTIONS
    WEL BOUNDARIES HAVE NAMES IN LAST COLUMN.
    FLOWS WILL BE SAVED TO BUDGET FILE SPECIFIED IN OUTPUT CONTROL
 END OF WEL OPTIONS

 PROCESSING WEL DIMENSIONS
    MAXBOUND =       9
 END OF WEL DIMENSIONS

 DRN   -- DRN PACKAGE, VERSION 8, 2/22/2014 INPUT READ FROM UNIT 1013
 # File generated by Flopy version 3.3.5 on 04/28/2022 at 15:58:48.

 PROCESSING DRN OPTIONS
    DRN BOUNDARIES HAVE NAMES IN LAST COLUMN.
    FLOWS WILL BE SAVED TO BUDGET FILE SPECIFIED IN OUTPUT CONTROL

 OPENED ml.drn.obs
 FILE TYPE:OBS   UNIT 1016   STATUS:OLD                 
 FORMAT:FORMATTED              ACCESS:SEQUENTIAL          
 ACTION:READ                

 END OF DRN OPTIONS

 PROCESSING DRN DIMENSIONS
    MAXBOUND =     133
 END OF DRN DIMENSIONS

 RIV   -- RIV PACKAGE, VERSION 8, 2/22/2014 INPUT READ FROM UNIT 1014
 # File generated by Flopy version 3.3.5 on 04/28/2022 at 15:58:48.

 PROCESSING RIV OPTIONS
    AUXILIARY RIV VARIABLE: FID             
    RIV BOUNDARIES HAVE NAMES IN LAST COLUMN.
    FLOWS WILL BE SAVED TO BUDGET FILE SPECIFIED IN OUTPUT CONTROL
 END OF RIV OPTIONS

 PROCESSING RIV DIMENSIONS
    MAXBOUND =     794
 END OF RIV DIMENSIONS

 GHB   -- GHB PACKAGE, VERSION 8, 2/22/2014 INPUT READ FROM UNIT 1008
 # File generated by Flopy version 3.3.5 on 04/28/2022 at 15:58:48.

 PROCESSING GHB OPTIONS
    GHB BOUNDARIES HAVE NAMES IN LAST COLUMN.
    FLOWS WILL BE SAVED TO BUDGET FILE SPECIFIED IN OUTPUT CONTROL
 END OF GHB OPTIONS

 PROCESSING GHB DIMENSIONS
    MAXBOUND =     153
 END OF GHB DIMENSIONS

 RCH   -- RCH PACKAGE, VERSION 8, 2/22/2014 INPUT READ FROM UNIT 1009
 # File generated by Flopy version 3.3.5 on 04/28/2022 at 15:58:48.

 PROCESSING RCH OPTIONS
    RECHARGE INPUT WILL BE READ AS ARRAY(S).
    FLOWS WILL BE SAVED TO BUDGET FILE SPECIFIED IN OUTPUT CONTROL
 END OF RCH OPTIONS

 IC -- INITIAL CONDITIONS PACKAGE, VERSION 8, 3/28/2015 INPUT READ FROM UNIT 1006
 # File generated by Flopy version 3.3.5 on 04/28/2022 at 15:58:48.
 PROCESSING GRIDDATA

     INITIAL HEAD =   15.00000    
 END PROCESSING GRIDDATA
 PROCESSING GRIDDATA

                ICELLTYPE = 0

 OPENED ../com_ext/k.txt
 FILE TYPE:OPEN/CLOSE   UNIT 1017   STATUS:OLD                 
 FORMAT:FORMATTED              ACCESS:SEQUENTIAL          
 ACTION:READ                

 K33 not provided.  Assuming K33 = K.
 K22 not provided.  Assuming K22 = K.
 END PROCESSING GRIDDATA

The observation utility is active for "ML"
 # File generated by Flopy version 3.3.5 on 04/28/2022 at 15:58:48.

Processing observation options:

Text output number of digits of precision set to: 10
The PRINT_INPUT option has been specified.


 OBSERVATIONS READ FROM FILE "ml.obs"
 ----------------------------------------------------------------------------------------------------------------------------------------------------------------------------------------------------------------------------
 NAME                                     TYPE                                       TIME         LOCATION DATA                              OUTPUT FILENAME                                                                 
 ----------------------------------------------------------------------------------------------------------------------------------------------------------------------------------------------------------------------------
 PRG                                      CONTINUOUS  HEAD                           ALL TIMES    "1 16523"                                  sim/hds.csv                                                                     
 P8                                       CONTINUOUS  HEAD                           ALL TIMES    "1 10323"                                  sim/hds.csv                                                                     
 P24                                      CONTINUOUS  HEAD                           ALL TIMES    "1 9594"                                   sim/hds.csv                                                                     
 P25                                      CONTINUOUS  HEAD                           ALL TIMES    "1 13966"                                  sim/hds.csv                                                                     
 P32                                      CONTINUOUS  HEAD                           ALL TIMES    "1 15787"                                  sim/hds.csv                                                                     
 P33                                      CONTINUOUS  HEAD                           ALL TIMES    "1 15825"                                  sim/hds.csv                                                                     
 PF                                       CONTINUOUS  HEAD                           ALL TIMES    "1 21048"                                  sim/hds.csv                                                                     
 PH                                       CONTINUOUS  HEAD                           ALL TIMES    "1 20781"                                  sim/hds.csv                                                                     
 PZHM1                                    CONTINUOUS  HEAD                           ALL TIMES    "1 14521"                                  sim/hds.csv                                                                     
 P26                                      CONTINUOUS  HEAD                           ALL TIMES    "1 13141"                                  sim/hds.csv                                                                     
 P27                                      CONTINUOUS  HEAD                           ALL TIMES    "1 8465"                                   sim/hds.csv                                                                     
 P28                                      CONTINUOUS  HEAD                           ALL TIMES    "1 8924"                                   sim/hds.csv                                                                     
 P29                                      CONTINUOUS  HEAD                           ALL TIMES    "1 4524"                                   sim/hds.csv                                                                     
 P30                                      CONTINUOUS  HEAD                           ALL TIMES    "1 5255"                                   sim/hds.csv                                                                     
 R20                                      CONTINUOUS  HEAD                           ALL TIMES    "1 10676"                                  sim/hds.csv                                                                     
 R21                                      CONTINUOUS  HEAD                           ALL TIMES    "1 10403"                                  sim/hds.csv                                                                     
 P34                                      CONTINUOUS  HEAD                           ALL TIMES    "1 15131"                                  sim/hds.csv                                                                     
 P37                                      CONTINUOUS  HEAD                           ALL TIMES    "1 15755"                                  sim/hds.csv                                                                     
 P38                                      CONTINUOUS  HEAD                           ALL TIMES    "1 15045"                                  sim/hds.csv                                                                     
 P39                                      CONTINUOUS  HEAD                           ALL TIMES    "1 9637"                                   sim/hds.csv                                                                     
 P40                                      CONTINUOUS  HEAD                           ALL TIMES    "1 9312"                                   sim/hds.csv                                                                     
 AP1                                      CONTINUOUS  HEAD                           ALL TIMES    "1 9702"                                   sim/hds.csv                                                                     
 RCK1                                     CONTINUOUS  HEAD                           ALL TIMES    "1 15900"                                  sim/hds.csv                                                                     
 RCK2                                     CONTINUOUS  HEAD                           ALL TIMES    "1 15199"                                  sim/hds.csv                                                                     
 P23                                      CONTINUOUS  HEAD                           ALL TIMES    "1 6409"                                   sim/hds.csv                                                                     
 ----------------------------------------------------------------------------------------------------------------------------------------------------------------------------------------------------------------------------


    BINARY GRID INFORMATION WILL BE WRITTEN TO:
      UNIT NUMBER: 1019
      FILE NAME: /srv/common/ptrack/case_study/pst/ml_03/./ml.disv.grb

 OPENED /srv/common/ptrack/case_study/pst/ml_03/./ml.disv.grb
 FILE TYPE:DATA(BINARY)   UNIT 1019   STATUS:REPLACE             
 FORMAT:UNFORMATTED            ACCESS:STREAM              
 ACTION:READWRITE           

      THE LAST TIME STEP WILL BE PRINTED
      THE LAST TIME STEP WILL BE PRINTED
 # File generated by Flopy version 3.3.5 on 04/28/2022 at 15:58:48.

 PROCESSING OC OPTIONS

    BUDGET INFORMATION WILL BE WRITTEN TO:
      UNIT NUMBER: 1020
      FILE NAME: ml.cbc

 OPENED ml.cbc
 FILE TYPE:DATA(BINARY)   UNIT 1020   STATUS:REPLACE             
 FORMAT:UNFORMATTED            ACCESS:STREAM              
 ACTION:READWRITE           

    HEAD INFORMATION WILL BE WRITTEN TO:
      UNIT NUMBER: 1021
      FILE NAME: ml.hds

 OPENED ml.hds
 FILE TYPE:DATA(BINARY)   UNIT 1021   STATUS:REPLACE             
 FORMAT:UNFORMATTED            ACCESS:STREAM              
 ACTION:READWRITE           

 END OF OC OPTIONS

The observation utility is active for "DRN_0"
 # File generated by Flopy version 3.3.5 on 04/28/2022 at 15:58:48.

Processing observation options:



start timestep kper="1" kstp="1" mode="normal"


 BEGIN READING OUTPUT CONTROL FOR STRESS PERIOD 1
      THE LAST TIME STEP WILL BE SAVED
      THE LAST TIME STEP WILL BE SAVED

 END READING OUTPUT CONTROL FOR STRESS PERIOD 1

 OPENED ext/wel_spd_1.txt
 FILE TYPE:OPEN/CLOSE   UNIT 1023   STATUS:OLD                 
 FORMAT:FORMATTED              ACCESS:SEQUENTIAL          
 ACTION:READ                


 OPENED ext/drn_spd_1.txt
 FILE TYPE:OPEN/CLOSE   UNIT 1024   STATUS:OLD                 
 FORMAT:FORMATTED              ACCESS:SEQUENTIAL          
 ACTION:READ                


 OPENED ext/riv_spd_1.txt
 FILE TYPE:OPEN/CLOSE   UNIT 1025   STATUS:OLD                 
 FORMAT:FORMATTED              ACCESS:SEQUENTIAL          
 ACTION:READ                


 OPENED ../com_ext/ghb_spd_1.txt
 FILE TYPE:OPEN/CLOSE   UNIT 1026   STATUS:OLD                 
 FORMAT:FORMATTED              ACCESS:SEQUENTIAL          
 ACTION:READ                


 OPENED ../com_ext/rech_spd_1.txt
 FILE TYPE:OPEN/CLOSE   UNIT 1027   STATUS:OLD                 
 FORMAT:FORMATTED              ACCESS:SEQUENTIAL          
 ACTION:READ                


 SLN_1 INNER ITERATION SUMMARY
 --------------------------------------------------------------------------------------------------------------------------------------
      TOTAL      OUTER      INNER                                                            MAXIMUM                                   
  ITERATION  ITERATION  ITERATION  MAXIMUM CHANGE      MAXIMUM CHANGE MODEL-(CELLID)        RESIDUAL    MAXIMUM RESIDUAL MODEL-(CELLID)
 --------------------------------------------------------------------------------------------------------------------------------------
          1          1          1      -11.826508                    1_GWF-(1,12785)      0.66549425                    1_GWF-(1,11179)
          2          1          2       7.9527905                    1_GWF-(1,26564)     -0.36581763                    1_GWF-(1,11175)
          3          1          3       8.5910436                    1_GWF-(1,26565)     -0.32971801                    1_GWF-(1,11178)
          4          1          4       8.3357500                    1_GWF-(1,26564)      0.32144527                    1_GWF-(1,11180)
          5          1          5       8.5306587                    1_GWF-(1,26611)      0.29310948                    1_GWF-(1,11157)
          6          1          6       9.1703192                    1_GWF-(1,26649)      0.22650501                    1_GWF-(1,11158)
          7          1          7       9.2473924                    1_GWF-(1,26622)     -0.25566209                    1_GWF-(1,11208)
          8          1          8       7.3889133                    1_GWF-(1,26665)      0.14853559                    1_GWF-(1,10961)
          9          1          9      -5.6426282                    1_GWF-(1,26665)      0.14994352                    1_GWF-(1,11158)
         10          1         10      -5.6406088                    1_GWF-(1,26666)      0.15520007                    1_GWF-(1,11207)
         11          1         11      -5.3242411                    1_GWF-(1,26665)     -0.14521341                    1_GWF-(1,11207)
         12          1         12      -5.1169696                    1_GWF-(1,26622)      0.10900745                    1_GWF-(1,11059)
         13          1         13      -6.0391125                    1_GWF-(1,26649)  9.18251311E-02                    1_GWF-(1,11052)
         14          1         14      -4.9276273                    1_GWF-(1,26622)  8.45084723E-02                    1_GWF-(1,11050)
         15          1         15      -3.9472887                    1_GWF-(1,26623)  8.24263114E-02                    1_GWF-(1,11017)
         16          1         16      -3.0895414                    1_GWF-(1,26622)  8.14699867E-02                    1_GWF-(1,11058)
         17          1         17      -3.6239427                    1_GWF-(1,26588)      0.10931009                    1_GWF-(1,10873)
         18          1         18      -4.7119914                    1_GWF-(1,26543)     -0.10089712                    1_GWF-(1,11152)
         19          1         19      -6.1753269                    1_GWF-(1,26588)  8.45723709E-02                    1_GWF-(1,11194)
         20          1         20      -4.9767547                    1_GWF-(1,26543)  8.74330985E-02                    1_GWF-(1,11151)
         21          1         21      -3.5479811                    1_GWF-(1,26544) -8.20222632E-02                    1_GWF-(1,11152)
         22          1         22      -3.8500770                    1_GWF-(1,26486) -8.96057944E-02                    1_GWF-(1,11151)
         23          1         23      -3.7186649                    1_GWF-(1,26487)  7.64617740E-02                    1_GWF-(1,11151)
         24          1         24       3.5650946                    1_GWF-(1,26487)  6.63194338E-02                    1_GWF-(1,11108)
         25          1         25       4.6561711                    1_GWF-(1,26420) -6.68833631E-02                    1_GWF-(1,11151)
         26          1         26       4.8457857                    1_GWF-(1,26487) -7.87109779E-02                    1_GWF-(1,11108)
         27          1         27       4.0278017                    1_GWF-(1,26420)  6.49132217E-02                    1_GWF-(1,11108)
         28          1         28       2.9025634                    1_GWF-(1,26487) -5.78954849E-02                    1_GWF-(1,11149)
         29          1         29       2.1968891                    1_GWF-(1,26542) -5.59925018E-02                    1_GWF-(1,11150)
         30          1         30       1.8356528                    1_GWF-(1,26623) -5.77462174E-02                    1_GWF-(1,11063)
         31          1         31       1.9740965                    1_GWF-(1,26586)  4.95954862E-02                    1_GWF-(1,11158)
         32          1         32       1.7354225                    1_GWF-(1,26422) -4.72662161E-02                    1_GWF-(1,11053)
         33          1         33      -1.9439947                    1_GWF-(1,26422) -5.08727953E-02                    1_GWF-(1,11155)
         34          1         34      -2.0004867                    1_GWF-(1,26350) -4.49083693E-02                    1_GWF-(1,11154)
         35          1         35      -2.0500270                    1_GWF-(1,26422)  4.83827597E-02                    1_GWF-(1,11154)
         36          1         36      -1.8715765                    1_GWF-(1,26350) -4.89752407E-02                    1_GWF-(1,11153)
         37          1         37      -1.6955275                    1_GWF-(1,26422)  4.82302043E-02                    1_GWF-(1,11064)
         38          1         38      -1.5555520                    1_GWF-(1,26648)  5.58413858E-02                    1_GWF-(1,11063)
         39          1         39      -1.4940614                    1_GWF-(1,26649)  4.28472925E-02                    1_GWF-(1,11150)
         40          1         40      -1.4775333                    1_GWF-(1,26623)  3.28188891E-02                    1_GWF-(1,11110)
         41          1         41      -1.2959566                    1_GWF-(1,26649) -3.42381722E-02                    1_GWF-(1,11150)
         42          1         42      -1.1593228                    1_GWF-(1,26623)  3.83953899E-02                    1_GWF-(1,11150)
         43          1         43     -0.95826564                    1_GWF-(1,21484) -3.95962889E-02                    1_GWF-(1,11151)
         44          1         44     -0.95113339                    1_GWF-(1,21412) -4.14683355E-02                    1_GWF-(1,11108)
         45          1         45      -1.2207266                    1_GWF-(1,21259) -2.96445872E-02                    1_GWF-(1,11061)
         46          1         46      -1.1509072                    1_GWF-(1,20925)  3.30731881E-02                    1_GWF-(1,14801)
         47          1         47      -1.2143354                    1_GWF-(1,20919) -4.29796666E-02                    1_GWF-(1,14801)
         48          1         48     -0.90884323                    1_GWF-(1,20918)  5.50395796E-02                    1_GWF-(1,14801)
         49          1         49     -0.68338644                    1_GWF-(1,26217) -5.77872359E-02                    1_GWF-(1,14801)
         50          1         50     -0.62407916                    1_GWF-(1,26218)  7.79593018E-02                    1_GWF-(1,14801)
         51          2          1      -36.943531                    1_GWF-(1,26519)     -0.16439031                    1_GWF-(1,26519)
         52          2          2      -13.770636                    1_GWF-(1,26607) -6.30567647E-02                    1_GWF-(1,26516)
         53          2          3      -7.1258032                    1_GWF-(1,26637)  4.24296162E-02                    1_GWF-(1,26516)
         54          2          4      -7.0201551                    1_GWF-(1,26665)  4.91278753E-02                    1_GWF-(1,14801)
         55          2          5      -4.5627302                    1_GWF-(1,26649) -4.65044720E-02                    1_GWF-(1,14801)
         56          2          6      -3.4715814                    1_GWF-(1,26589)  6.34807891E-02                    1_GWF-(1,14801)
         57          2          7      -2.9593968                    1_GWF-(1,26543) -7.00005437E-02                    1_GWF-(1,14801)
         58          2          8      -2.5982793                    1_GWF-(1,26544)      0.10971829                    1_GWF-(1,14801)
         59          2          9      -1.8906248                    1_GWF-(1,26487) -9.32208228E-02                    1_GWF-(1,14801)
         60          2         10      -1.5640754                    1_GWF-(1,26421)  8.60846718E-02                    1_GWF-(1,14801)
         61          2         11      -1.4607574                    1_GWF-(1,26422)  1.55374123E-02                    1_GWF-(1,14800)
         62          2         12      -1.1610320                    1_GWF-(1,26217)  3.28428873E-02                    1_GWF-(1,14800)
         63          2         13     -0.89162814                    1_GWF-(1,26218)  6.34400137E-02                    1_GWF-(1,14801)
         64          2         14     -0.56363220                    1_GWF-(1,26649) -6.22239738E-02                    1_GWF-(1,14801)
         65          2         15     -0.61325189                    1_GWF-(1,26622)  5.82517383E-02                    1_GWF-(1,14801)
         66          2         16     -0.79680682                    1_GWF-(1,25775)  1.58491722E-02                    1_GWF-(1,14801)
         67          2         17     -0.87042304                    1_GWF-(1,25758)  6.24128430E-02                    1_GWF-(1,14800)
         68          2         18      0.86982384                    1_GWF-(1,26217)  8.73798205E-02                    1_GWF-(1,14801)
         69          2         19      0.64687029                    1_GWF-(1,26218)  6.46950943E-02                    1_GWF-(1,14800)
         70          2         20      0.46191086                    1_GWF-(1,26543)  5.02357369E-02                    1_GWF-(1,14801)
         71          2         21      0.68816874                    1_GWF-(1,26588)  1.02242136E-02                    1_GWF-(1,14801)
         72          2         22      0.72989180                    1_GWF-(1,26543)  4.53626063E-02                    1_GWF-(1,14800)
         73          2         23      0.44319089                    1_GWF-(1,26544)  7.99533552E-02                    1_GWF-(1,14801)
         74          2         24     -0.49131007                    1_GWF-(1,26422)  7.12466831E-02                    1_GWF-(1,14800)
         75          2         25     -0.68243826                    1_GWF-(1,26486)  6.08980986E-02                    1_GWF-(1,14801)
         76          2         26     -0.73848334                    1_GWF-(1,26487)  1.15513221E-02                    1_GWF-(1,14800)
         77          2         27     -0.49357935                    1_GWF-(1,26420)  3.80054050E-02                    1_GWF-(1,14800)
         78          2         28     -0.26377580                    1_GWF-(1,26543)  6.72000009E-02                    1_GWF-(1,14801)
         79          2         29      0.28014727                    1_GWF-(1,26487)  6.59631274E-02                    1_GWF-(1,14800)
         80          2         30      0.28406616                    1_GWF-(1,26420)  8.82299629E-02                    1_GWF-(1,14801)
         81          2         31      0.23770651                    1_GWF-(1,25268) -8.04008295E-02                    1_GWF-(1,14801)
         82          2         32      0.26056834                    1_GWF-(1,26218)  8.87250411E-02                    1_GWF-(1,14801)
         83          2         33      0.27658726                    1_GWF-(1,26217) -6.10479615E-02                    1_GWF-(1,14801)
         84          2         34     -0.21052550                    1_GWF-(1,26217)  4.85910666E-02                    1_GWF-(1,14801)
         85          2         35      0.18891891                    1_GWF-(1,26422)  3.07219618E-02                    1_GWF-(1,14800)
         86          2         36      0.18770491                    1_GWF-(1,26218)  2.57990612E-02                    1_GWF-(1,14801)
         87          2         37     -0.20615983                    1_GWF-(1,21290)  1.64636296E-02                    1_GWF-(1,14800)
         88          2         38     -0.20910051                    1_GWF-(1,21282)  1.37679626E-02                    1_GWF-(1,14801)
         89          2         39     -0.19503764                    1_GWF-(1,20937)  7.54720250E-03                    1_GWF-(1,14800)
         90          2         40     -0.19188483                    1_GWF-(1,20915)  5.00558793E-03                    1_GWF-(1,14801)
         91          2         41     -0.15439231                    1_GWF-(1,25494)  7.19654251E-03                    1_GWF-(1,14801)
         92          2         42      0.16168835                    1_GWF-(1,21364)  9.25616813E-03                    1_GWF-(1,14800)
         93          2         43     -0.19459832                    1_GWF-(1,26350)  1.25781289E-02                    1_GWF-(1,14801)
         94          2         44      0.21046434                    1_GWF-(1,21283)  1.20966030E-02                    1_GWF-(1,14800)
         95          2         45      0.20085928                    1_GWF-(1,21265)  1.47324942E-02                    1_GWF-(1,14801)
         96          2         46      0.17896437                    1_GWF-(1,20917)  1.13236848E-02                    1_GWF-(1,14800)
         97          2         47      0.13674154                    1_GWF-(1,20232)  1.03344258E-02                    1_GWF-(1,14801)
         98          2         48 -9.36164625E-02                    1_GWF-(1,26422)  6.78254364E-03                    1_GWF-(1,14800)
         99          2         49 -8.74107176E-02                    1_GWF-(1,26586)  6.48652148E-03                    1_GWF-(1,14801)
        100          2         50 -7.20827968E-02                    1_GWF-(1,20584)  4.95734491E-03                    1_GWF-(1,15939)
        101          3          1     -0.12137074                    1_GWF-(1,11442) -6.69761299E-03                    1_GWF-(1,11378)
        102          3          2     -0.14023871                    1_GWF-(1,26082)  5.66204600E-03                    1_GWF-(1,14800)
        103          3          3     -0.10486250                    1_GWF-(1,26079)  7.42297879E-03                    1_GWF-(1,14801)
        104          3          4 -8.13531598E-02                    1_GWF-(1,26085)  5.80468877E-03                    1_GWF-(1,14800)
        105          3          5 -8.35957470E-02                    1_GWF-(1,25572)  7.40335802E-03                    1_GWF-(1,14801)
        106          3          6 -7.41675453E-02                    1_GWF-(1,25582)  6.72063005E-03                    1_GWF-(1,14800)
        107          3          7 -6.93567524E-02                    1_GWF-(1,25580)  6.53222971E-03                    1_GWF-(1,14801)
        108          3          8 -7.17251381E-02                    1_GWF-(1,26422)  4.85825689E-03                    1_GWF-(1,14800)
        109          3          9 -7.72564030E-02                    1_GWF-(1,26350)  5.55297192E-03                    1_GWF-(1,14801)
        110          3         10 -6.67466629E-02                    1_GWF-(1,25721)  3.72749285E-03                    1_GWF-(1,14800)
        111          3         11 -7.20980707E-02                    1_GWF-(1,24873)  3.28696285E-03                    1_GWF-(1,15939)
        112          3         12 -6.32777967E-02                    1_GWF-(1,26422) -2.90153964E-03                    1_GWF-(1,15939)
        113          3         13 -4.77720484E-02                    1_GWF-(1,24901)  1.76670173E-03                    1_GWF-(1,15939)
        114          3         14 -5.21807495E-02                    1_GWF-(1,25416)  1.92625686E-03                    1_GWF-(1,14801)
        115          3         15 -5.02103441E-02                    1_GWF-(1,22570)  2.32627933E-03                    1_GWF-(1,14800)
        116          3         16 -4.49854965E-02                    1_GWF-(1,22559)  3.77787705E-03                    1_GWF-(1,14801)
        117          3         17 -4.51241187E-02                    1_GWF-(1,22535)  4.18647982E-03                    1_GWF-(1,14800)
        118          3         18 -4.21565659E-02                    1_GWF-(1,22524)  6.02125304E-03                    1_GWF-(1,14801)
        119          3         19 -3.90219530E-02                    1_GWF-(1,22311)  6.65449541E-03                    1_GWF-(1,14800)
        120          3         20 -4.21012842E-02                    1_GWF-(1,21263)  9.20994026E-03                    1_GWF-(1,14801)
        121          3         21 -5.09985113E-02                    1_GWF-(1,21263) -9.05935049E-03                    1_GWF-(1,14801)
        122          3         22 -4.87938511E-02                    1_GWF-(1,20230)  1.18773517E-02                    1_GWF-(1,14801)
        123          3         23 -4.70738313E-02                    1_GWF-(1,20222) -1.26120048E-02                    1_GWF-(1,14801)
        124          3         24  5.25600605E-02                    1_GWF-(1,26588)  1.26649472E-02                    1_GWF-(1,14801)
        125          3         25  6.00541162E-02                    1_GWF-(1,26487)  4.69126722E-03                    1_GWF-(1,14800)
        126          3         26  6.00044523E-02                    1_GWF-(1,26420)  3.51640657E-03                    1_GWF-(1,14800)
        127          3         27  4.51424052E-02                    1_GWF-(1,26487)  9.12277059E-03                    1_GWF-(1,14801)
        128          3         28 -3.23761658E-02                    1_GWF-(1,26543) -1.07802570E-02                    1_GWF-(1,14801)
        129          3         29 -3.86732872E-02                    1_GWF-(1,26486)  9.38188954E-03                    1_GWF-(1,14801)
        130          3         30 -4.14084177E-02                    1_GWF-(1,26622)  3.53534587E-03                    1_GWF-(1,14800)
        131          3         31 -4.43021168E-02                    1_GWF-(1,26649)  2.03592362E-03                    1_GWF-(1,14800)
        132          3         32 -4.41607367E-02                    1_GWF-(1,26622)  6.86755723E-03                    1_GWF-(1,14801)
        133          3         33 -3.36945463E-02                    1_GWF-(1,26649) -8.52990037E-03                    1_GWF-(1,14801)
        134          3         34  3.19393372E-02                    1_GWF-(1,26649)  8.36076728E-03                    1_GWF-(1,14801)
        135          3         35 -3.44394279E-02                    1_GWF-(1,26665) -3.30765683E-03                    1_GWF-(1,14801)
        136          3         36  4.68766789E-02                    1_GWF-(1,26665) -8.82934952E-04                    1_GWF-(1,15942)
        137          3         37  4.17027576E-02                    1_GWF-(1,26666)  3.16942100E-03                    1_GWF-(1,14801)
        138          3         38  2.95583739E-02                    1_GWF-(1,26674) -4.64705066E-03                    1_GWF-(1,14801)
        139          3         39 -2.47676893E-02                    1_GWF-(1,26665)  3.84542331E-03                    1_GWF-(1,14801)
        140          3         40  2.29414578E-02                    1_GWF-(1,26421) -2.71806728E-03                    1_GWF-(1,14801)
        141          3         41  2.57051189E-02                    1_GWF-(1,26486) -8.19659990E-04                    1_GWF-(1,15939)
        142          3         42  2.68638525E-02                    1_GWF-(1,26487)  1.39671969E-03                    1_GWF-(1,14801)
        143          3         43  2.68893977E-02                    1_GWF-(1,26486) -2.61369049E-03                    1_GWF-(1,14801)
        144          3         44  2.52009790E-02                    1_GWF-(1,26588) -2.06269570E-03                    1_GWF-(1,14800)
        145          3         45  1.75795987E-02                    1_GWF-(1,26622) -1.94624133E-03                    1_GWF-(1,14801)
        146          3         46  1.60798178E-02                    1_GWF-(1,26649) -1.32396397E-03                    1_GWF-(1,14800)
        147          3         47 -1.25332697E-02                    1_GWF-(1,26141) -1.21212318E-03                    1_GWF-(1,14801)
        148          3         48 -1.24626665E-02                    1_GWF-(1,26543) -8.28606948E-04                    1_GWF-(1,15939)
        149          3         49 -1.57260973E-02                    1_GWF-(1,26649)  5.62690304E-04                    1_GWF-(1,15939)
        150          3         50 -1.22032581E-02                    1_GWF-(1,26623)  3.82974332E-04                    1_GWF-(1,15854)
        151          4          1 -6.34835812E-02                    1_GWF-(1,11426)  4.52089504E-04                    1_GWF-(1,10745)
        152          4          2 -3.04289436E-02                    1_GWF-(1,11421) -4.32422873E-04                    1_GWF-(1,10745)
        153          4          3 -1.81643088E-02                    1_GWF-(1,11422) -2.81553054E-04                    1_GWF-(1,14801)
        154          4          4 -1.39021206E-02                    1_GWF-(1,11410) -2.57956994E-04                    1_GWF-(1,14800)
        155          4          5 -8.83504134E-03                    1_GWF-(1,11405) -3.76983208E-04                    1_GWF-(1,14801)
        156          4          6 -6.25673588E-03                    1_GWF-(1,11453) -4.28064515E-04                    1_GWF-(1,14800)
        157          4          7 -5.23319324E-03                    1_GWF-(1,26217) -6.07320864E-04                    1_GWF-(1,14801)
        158          4          8 -6.11733946E-03                    1_GWF-(1,26218)  6.44795939E-04                    1_GWF-(1,14801)
        159          4          9  7.44303200E-03                    1_GWF-(1,11455)  5.87612258E-04                    1_GWF-(1,14800)
        160          4         10 -5.26908058E-03                    1_GWF-(1,26486)  4.95258709E-04                    1_GWF-(1,14801)
        161          4         11  5.75776768E-03                    1_GWF-(1,26486)  3.08853792E-04                    1_GWF-(1,14801)
        162          4         12 -5.84437056E-03                    1_GWF-(1,11466)  5.20001669E-04                    1_GWF-(1,14800)
        163          4         13  4.37016249E-03                    1_GWF-(1,26217)  6.33452937E-04                    1_GWF-(1,14801)
        164          4         14  4.44528983E-03                    1_GWF-(1,11466) -7.82358438E-04                    1_GWF-(1,14801)
        165          4         15 -4.60941460E-03                    1_GWF-(1,26665) -5.17705074E-04                    1_GWF-(1,14800)
        166          4         16  5.67329510E-03                    1_GWF-(1,26665) -3.04537909E-04                    1_GWF-(1,14801)
        167          4         17 -5.35208811E-03                    1_GWF-(1,26665)  1.70458178E-04                    1_GWF-(1,14799)
        168          4         18  4.80721348E-03                    1_GWF-(1,26665)  4.56700039E-04                    1_GWF-(1,14801)
        169          4         19 -3.43307498E-03                    1_GWF-(1,24316) -5.87544135E-04                    1_GWF-(1,14801)
        170          4         20  3.32821967E-03                    1_GWF-(1,26649)  6.21565835E-04                    1_GWF-(1,14801)
        171          4         21 -3.63738596E-03                    1_GWF-(1,26649)  3.60092819E-04                    1_GWF-(1,14800)
        172          4         22 -4.18397265E-03                    1_GWF-(1,26622)  1.61931815E-04                    1_GWF-(1,14799)
        173          4         23 -3.18736746E-03                    1_GWF-(1,26649)  3.40708143E-04                    1_GWF-(1,14801)
        174          4         24 -2.94458108E-03                    1_GWF-(1,26622)  5.09562690E-04                    1_GWF-(1,14800)
        175          4         25 -3.20549424E-03                    1_GWF-(1,26486)  6.65751803E-04                    1_GWF-(1,14801)
        176          4         26 -3.72309627E-03                    1_GWF-(1,26487)  4.30251254E-04                    1_GWF-(1,14800)
        177          4         27 -3.82627766E-03                    1_GWF-(1,26588)  1.66386941E-04                    1_GWF-(1,14801)
        178          4         28 -2.84252949E-03                    1_GWF-(1,26487)  3.07030743E-04                    1_GWF-(1,14801)
        179          4         29 -1.84356998E-03                    1_GWF-(1,26420)  4.51041765E-04                    1_GWF-(1,14800)
        180          4         30 -1.27887644E-03                    1_GWF-(1,21496)  6.81476619E-04                    1_GWF-(1,14801)
        181          4         31 -1.15197479E-03                    1_GWF-(1,21495) -6.72485047E-04                    1_GWF-(1,14801)
        182          4         32  1.10932625E-03                    1_GWF-(1,26350)  8.00532084E-04                    1_GWF-(1,14801)
        183          4         33  1.21644338E-03                    1_GWF-(1,26422) -5.55577217E-04                    1_GWF-(1,14801)
        184          4         34  1.13660596E-03                    1_GWF-(1,26350)  4.45204129E-04                    1_GWF-(1,14801)
        185          4         35  1.14656248E-03                    1_GWF-(1,26422)  3.06969851E-04                    1_GWF-(1,14800)
        186          4         36  1.13130627E-03                    1_GWF-(1,26218)  2.98555879E-04                    1_GWF-(1,14801)
        187          4         37 -8.55377759E-04                    1_GWF-(1,20988)  1.61622923E-04                    1_GWF-(1,14800)
        188          4         38 -9.15219309E-04                    1_GWF-(1,20999)  1.55796709E-04                    1_GWF-(1,14801)
        189          4         39 -9.10936231E-04                    1_GWF-(1,21175)  1.22897113E-04                    1_GWF-(1,14800)
        190          4         40 -8.20937147E-04                    1_GWF-(1,21189) -9.53304700E-05                    1_GWF-(1,15939)
        191          4         41 -8.49636849E-04                    1_GWF-(1,21376)  9.14508616E-05                    1_GWF-(1,15939)
        192          4         42 -9.61355869E-04                    1_GWF-(1,26422) -1.03256294E-04                    1_GWF-(1,15939)
        193          4         43 -9.93819485E-04                    1_GWF-(1,26350)  7.79478056E-05                    1_GWF-(1,15939)
        194          4         44 -1.04900066E-03                    1_GWF-(1,26422)  6.75776738E-05                    1_GWF-(1,14799)
        195          4         45 -1.02385996E-03                    1_GWF-(1,26350)  8.53694110E-05                    1_GWF-(1,14801)
        196          4         46 -1.13986650E-03                    1_GWF-(1,26422)  9.35619584E-05                    1_GWF-(1,14800)
        197          4         47 -1.03821073E-03                    1_GWF-(1,26350)  8.83135185E-05                    1_GWF-(1,14801)
        198          4         48 -8.67306471E-04                    1_GWF-(1,26422)  6.75928882E-05                    1_GWF-(1,14800)
        199          4         49  8.37297578E-04                    1_GWF-(1,26422)  9.17011633E-05                    1_GWF-(1,14801)
        200          4         50  6.71599751E-04                    1_GWF-(1,26350)  5.94021253E-05                    1_GWF-(1,14800)
        201          5          1 -3.24648535E-03                    1_GWF-(1,11933)  4.40629777E-05                    1_GWF-(1,14801)
        202          5          2 -1.34923004E-03                    1_GWF-(1,11934)  4.97751228E-05                    1_GWF-(1,14800)
        203          5          3 -7.13691054E-04                    1_GWF-(1,11924)  7.14802944E-05                    1_GWF-(1,14801)
        204          5          4  7.14231572E-04                    1_GWF-(1,26350)  6.64719247E-05                    1_GWF-(1,14800)
        205          5          5  8.69690994E-04                    1_GWF-(1,26422)  7.95327917E-05                    1_GWF-(1,14801)
        206          5          6  7.91222082E-04                    1_GWF-(1,26350)  5.65297853E-05                    1_GWF-(1,14800)
        207          5          7  7.33294947E-04                    1_GWF-(1,26422)  5.54221459E-05                    1_GWF-(1,14801)
        208          5          8  6.25072874E-04                    1_GWF-(1,11998)  3.76414781E-05                    1_GWF-(1,14800)
        209          5          9  6.30907794E-04                    1_GWF-(1,11988)  4.50495468E-05                    1_GWF-(1,15939)
        210          5         10  5.70797021E-04                    1_GWF-(1,11984) -4.74517713E-05                    1_GWF-(1,15939)
        211          5         11 -5.49359675E-04                    1_GWF-(1,12001)  4.72781139E-05                    1_GWF-(1,15939)
        212          5         12 -6.56775611E-04                    1_GWF-(1,26649)  3.66003871E-05                    1_GWF-(1,14801)
        213          5         13 -6.37490451E-04                    1_GWF-(1,26622) -2.67651380E-05                    1_GWF-(1,15939)
        214          5         14 -4.32278339E-04                    1_GWF-(1,26544)  5.05299198E-05                    1_GWF-(1,15939)
        215          5         15 -4.29700417E-04                    1_GWF-(1,26486) -3.85007899E-05                    1_GWF-(1,15939)
        216          5         16 -3.15252109E-04                    1_GWF-(1,12012)  3.88094043E-05                    1_GWF-(1,15939)
        217          5         17 -3.35422114E-04                    1_GWF-(1,12087)  4.65755639E-05                    1_GWF-(1,14801)
        218          5         18 -3.17807353E-04                    1_GWF-(1,12047)  4.98721847E-05                    1_GWF-(1,14800)
        219          5         19 -3.40745180E-04                    1_GWF-(1,26486)  7.47401555E-05                    1_GWF-(1,14801)
        220          5         20  4.75013337E-04                    1_GWF-(1,26486)  5.50730174E-05                    1_GWF-(1,14800)
        221          5         21  6.16967665E-04                    1_GWF-(1,26487)  2.17845214E-05                    1_GWF-(1,14801)
        222          5         22  5.13674629E-04                    1_GWF-(1,26486)  3.80008849E-05                    1_GWF-(1,14801)
        223          5         23 -3.94508908E-04                     1_GWF-(1,3439)  6.47976409E-05                    1_GWF-(1,14800)
        224          5         24 -4.60213668E-04                     1_GWF-(1,8061)  1.02299430E-04                    1_GWF-(1,14801)
        225          5         25 -4.29792313E-04                     1_GWF-(1,8085) -1.11230667E-04                    1_GWF-(1,14801)
        226          5         26 -3.59666674E-04                     1_GWF-(1,8013)  1.39146235E-04                    1_GWF-(1,14801)
        227          5         27  3.49418970E-04                     1_GWF-(1,3430) -1.29075048E-04                    1_GWF-(1,14801)
        228          5         28  4.30454915E-04                     1_GWF-(1,8050)  1.22068467E-04                    1_GWF-(1,14801)
        229          5         29  4.69512227E-04                     1_GWF-(1,8058) -9.27216248E-05                    1_GWF-(1,14801)
        230          5         30  4.36266812E-04                     1_GWF-(1,8084)  6.03010504E-05                    1_GWF-(1,14801)
        231          5         31  4.10873404E-04                     1_GWF-(1,8178) -1.08347685E-05                    1_GWF-(1,14798)
        232          5         32 -3.63676493E-04                    1_GWF-(1,26588) -4.57924372E-05                    1_GWF-(1,14801)
        233          5         33 -3.17936204E-04                    1_GWF-(1,26543)  7.10119567E-05                    1_GWF-(1,14801)
        234          5         34 -3.04303018E-04                    1_GWF-(1,26588) -7.77732028E-05                    1_GWF-(1,14801)
        235          5         35 -2.25971995E-04                     1_GWF-(1,8012) -5.48928333E-05                    1_GWF-(1,14800)
        236          5         36 -2.52499483E-04                     1_GWF-(1,8023) -5.32932737E-05                    1_GWF-(1,14801)
        237          5         37 -2.81025749E-04                     1_GWF-(1,8211) -2.87897540E-05                    1_GWF-(1,14800)
        238          5         38 -2.31921015E-04                     1_GWF-(1,8219)  1.09678385E-05                    1_GWF-(1,14799)
        239          5         39  1.89425973E-04                    1_GWF-(1,26665)  1.27913473E-05                    1_GWF-(1,14800)
        240          5         40 -1.95697107E-04                    1_GWF-(1,26665)  3.12593924E-05                    1_GWF-(1,14801)
        241          5         41  1.61835575E-04                    1_GWF-(1,26665) -3.19556243E-05                    1_GWF-(1,14801)
        242          5         42  1.85797538E-04                     1_GWF-(1,8221)  3.27811536E-05                    1_GWF-(1,14801)
        243          5         43  2.03773094E-04                     1_GWF-(1,8224) -2.33330267E-05                    1_GWF-(1,14801)
        244          5         44  1.57100084E-04                     1_GWF-(1,8363)  1.53072563E-05                    1_GWF-(1,14801)
        245          5         45  1.35897430E-04                     1_GWF-(1,8085) -1.20604030E-05                    1_GWF-(1,14801)
        246          5         46  1.20118660E-04                     1_GWF-(1,8091) -8.27643980E-06                    1_GWF-(1,14799)
        247          5         47 -1.11999109E-04                     1_GWF-(1,8448)  7.12100712E-06                    1_GWF-(1,14799)
        248          5         48 -1.25997157E-04                     1_GWF-(1,8478) -8.55971136E-06                    1_GWF-(1,14799)
        249          5         49 -1.17706024E-04                     1_GWF-(1,8485)  7.24139739E-06                    1_GWF-(1,14799)
        250          5         50 -1.36553078E-04                     1_GWF-(1,8079) -1.20754009E-05                    1_GWF-(1,14799)
        251          6          1 -1.29482663E-04                    1_GWF-(1,11426)  9.47131648E-06                    1_GWF-(1,14799)
        252          6          2 -1.32364624E-04                    1_GWF-(1,11421) -1.06029633E-05                    1_GWF-(1,14799)
        253          6          3 -8.26975529E-05                    1_GWF-(1,11423)  8.83498963E-06                    1_GWF-(1,14799)
        254          6          4 -9.07955380E-05                    1_GWF-(1,26622) -4.79554110E-06                    1_GWF-(1,14799)
        255          6          5 -8.43504714E-05                    1_GWF-(1,26649) -2.65051662E-06                    1_GWF-(1,14799)
        256          6          6 -6.78717786E-05                    1_GWF-(1,20916)  7.66121514E-06                    1_GWF-(1,14799)
        257          6          7 -6.46228551E-05                    1_GWF-(1,21259) -1.01905801E-05                    1_GWF-(1,14799)
        258          6          8 -7.26967826E-05                     1_GWF-(1,8446)  1.12242866E-05                    1_GWF-(1,14799)
        259          6          9 -6.64288656E-05                     1_GWF-(1,8225) -1.14478957E-05                    1_GWF-(1,14799)
        260          6         10 -5.34727358E-05                    1_GWF-(1,26217)  1.26621252E-05                    1_GWF-(1,14799)
        261          6         11  4.49166451E-05                    1_GWF-(1,26217) -8.92826501E-06                    1_GWF-(1,14799)
        262          6         12  4.30888030E-05                    1_GWF-(1,26218)  8.13704447E-06                    1_GWF-(1,14799)
        263          6         13  4.96240882E-05                     1_GWF-(1,8214) -7.99900393E-06                    1_GWF-(1,14800)
        264          6         14  5.43864852E-05                     1_GWF-(1,8213) -9.28085914E-06                    1_GWF-(1,14801)
        265          6         15 -6.55397432E-05                    1_GWF-(1,26665) -4.73572857E-06                    1_GWF-(1,14800)
        266          6         16  6.13092242E-05                    1_GWF-(1,26665) -4.23835918E-06                    1_GWF-(1,14799)
        267          6         17 -4.84422777E-05                    1_GWF-(1,26665)  6.05273526E-06                    1_GWF-(1,14799)
        268          6         18 -4.82175264E-05                     1_GWF-(1,8218)  6.96043876E-06                    1_GWF-(1,14801)
        269          6         19 -4.91382215E-05                     1_GWF-(1,8020) -6.75281212E-06                    1_GWF-(1,14801)
        270          6         20 -5.08077917E-05                     1_GWF-(1,8180)  5.63044027E-06                    1_GWF-(1,14801)
        271          6         21  4.69516008E-05                    1_GWF-(1,26622)  2.61000512E-06                    1_GWF-(1,14798)
        272          6         22 -3.93204877E-05                    1_GWF-(1,26622) -4.64045538E-06                    1_GWF-(1,14801)
        273          6         23 -3.05726930E-05                    1_GWF-(1,25446)  8.31464482E-06                    1_GWF-(1,14801)
        274          6         24  3.32126611E-05                     1_GWF-(1,8189) -1.03802455E-05                    1_GWF-(1,14801)
        275          6         25  3.70645989E-05                     1_GWF-(1,8189)  1.22669246E-05                    1_GWF-(1,14801)
        276          6         26  3.37863910E-05                     1_GWF-(1,8013) -1.10772975E-05                    1_GWF-(1,14801)
        277          6         27  2.79418341E-05                     1_GWF-(1,8086)  8.40809590E-06                    1_GWF-(1,14801)
        278          6         28 -2.61294961E-05                    1_GWF-(1,26588)  2.85425056E-06                    1_GWF-(1,14800)
        279          6         29  2.63233630E-05                    1_GWF-(1,26588)  2.29906195E-06                    1_GWF-(1,14800)
        280          6         30 -2.28339641E-05                    1_GWF-(1,26588)  6.63859196E-06                    1_GWF-(1,14801)
        281          6         31  1.79994394E-05                    1_GWF-(1,26588) -6.49766197E-06                    1_GWF-(1,14801)
        282          6         32 -1.48229898E-05                     1_GWF-(1,7978)  6.97310007E-06                    1_GWF-(1,14801)
        283          6         33 -1.21480917E-05                     1_GWF-(1,8226) -4.66515418E-06                    1_GWF-(1,14801)
        284          6         34 -1.25666117E-05                     1_GWF-(1,8087)  3.88194755E-06                    1_GWF-(1,14801)
        285          6         35  1.17288521E-05                     1_GWF-(1,3032)  2.67364943E-06                    1_GWF-(1,14800)
        286          6         36  9.82021173E-06                     1_GWF-(1,3021)  2.50651240E-06                    1_GWF-(1,14801)
        287          6         37  8.91615906E-06                    1_GWF-(1,21315)  1.67930313E-06                    1_GWF-(1,14798)
        288          6         38  1.12050511E-05                     1_GWF-(1,8182)  2.23326019E-06                    1_GWF-(1,14799)
        289          6         39  1.28901480E-05                     1_GWF-(1,8075)  1.76940438E-06                    1_GWF-(1,14798)
        290          6         40  1.57980439E-05                     1_GWF-(1,8055)  2.08284106E-06                    1_GWF-(1,14799)
        291          6         41  1.66690225E-05                    1_GWF-(1,26588)  7.86521852E-07                    1_GWF-(1,14801)
        292          6         42  1.59402395E-05                    1_GWF-(1,26622) -9.40423725E-07                    1_GWF-(1,14799)
        293          6         43  1.30190384E-05                    1_GWF-(1,26623)  2.06908872E-06                    1_GWF-(1,14799)
        294          6         44  9.35532085E-06                    1_GWF-(1,25164)  1.57191797E-06                    1_GWF-(1,14798)
        295          6         45  1.00722019E-05                    1_GWF-(1,25149)  1.91412533E-06                    1_GWF-(1,14799)
        296          6         46  9.96211536E-06                    1_GWF-(1,25104)  1.23168418E-06                    1_GWF-(1,14798)
        297          6         47  8.13664405E-06                    1_GWF-(1,25107)  1.30912226E-06                    1_GWF-(1,14799)
        298          6         48 -8.90329860E-06                    1_GWF-(1,11934)  8.26030539E-07                    1_GWF-(1,14801)
        299          6         49  7.42837747E-06                    1_GWF-(1,11935)  7.93596060E-07                    1_GWF-(1,14800)
        300          6         50  1.06468475E-05                    1_GWF-(1,11933)  1.23182834E-06                    1_GWF-(1,14801)
        301          7          1 -1.01057994E-05                    1_GWF-(1,11934)  9.23842914E-07                    1_GWF-(1,14800)
        302          7          2  8.81428566E-06                    1_GWF-(1,26486)  8.71566791E-07                    1_GWF-(1,14801)
        303          7          3 -7.78443896E-06                    1_GWF-(1,26486)  5.30607309E-07                    1_GWF-(1,14800)
        304          7          4  9.58783560E-06                    1_GWF-(1,26486)  4.05400909E-07                    1_GWF-(1,14801)
        305          7          5 -9.05115010E-06                    1_GWF-(1,26486) -4.74757840E-07                    1_GWF-(1,15939)
        306          7          6  9.41763350E-06                    1_GWF-(1,26649)  5.00453006E-07                    1_GWF-(1,14800)
        307          7          7 -9.00281799E-06                    1_GWF-(1,26420)  6.67460430E-07                    1_GWF-(1,14801)
        308          7          8  8.17000699E-06                    1_GWF-(1,26350)  4.98686557E-07                    1_GWF-(1,14800)
        309          7          9 -7.62925216E-06                     1_GWF-(1,3594)  4.33041277E-07                    1_GWF-(1,15939)
        310          7         10 -9.19157081E-06                     1_GWF-(1,8053) -5.75269696E-07                    1_GWF-(1,15939)
        311          7         11 -8.77715403E-06                     1_GWF-(1,8051)  7.66000064E-07                    1_GWF-(1,15939)
        312          7         12 -7.25108351E-06                     1_GWF-(1,8075)  5.40134098E-07                    1_GWF-(1,14801)
        313          7         13 -5.82730486E-06                    1_GWF-(1,26420)  4.62968953E-07                    1_GWF-(1,14800)
        314          7         14 -7.16769735E-06                    1_GWF-(1,26487)  4.30307536E-07                    1_GWF-(1,14801)
        315          7         15  6.30719404E-06                    1_GWF-(1,26665) -3.52059795E-07                    1_GWF-(1,15939)
        316          7         16 -5.05335952E-06                    1_GWF-(1,26487)  4.99813385E-07                    1_GWF-(1,15939)
        317          7         17 -4.24719427E-06                     1_GWF-(1,3024)  4.67363014E-07                    1_GWF-(1,14801)
        318          7         18 -6.08135908E-06                    1_GWF-(1,26623)  4.45232717E-07                    1_GWF-(1,14800)
        319          7         19  7.05608424E-06                    1_GWF-(1,26588)  4.33423674E-07                    1_GWF-(1,14801)
        320          7         20 -8.02172189E-06                    1_GWF-(1,26588) -4.01006262E-07                    1_GWF-(1,15939)
        321          7         21  6.44913787E-06                    1_GWF-(1,26588)  4.78483744E-07                    1_GWF-(1,15939)
        322          7         22  4.13771868E-06                    1_GWF-(1,26543)  7.68373671E-07                    1_GWF-(1,14801)
        323          7         23  4.13614440E-06                    1_GWF-(1,21404)  8.57042365E-07                    1_GWF-(1,14800)
        324          7         24 -5.83668284E-06                     1_GWF-(1,8089)  1.16607310E-06                    1_GWF-(1,14801)
        325          7         25 -5.21985886E-06                     1_GWF-(1,8088) -1.14979229E-06                    1_GWF-(1,14801)
        326          7         26 -5.06350431E-06                    1_GWF-(1,26665)  1.04762444E-06                    1_GWF-(1,14801)
        327          7         27  5.60877989E-06                    1_GWF-(1,26665)  3.89929348E-07                    1_GWF-(1,14800)
        328          7         28 -4.50498963E-06                    1_GWF-(1,26665) -2.11355130E-07                    1_GWF-(1,14801)
        329          7         29  4.67452442E-06                     1_GWF-(1,7955)  7.32420495E-07                    1_GWF-(1,14801)
        330          7         30  4.09013506E-06                     1_GWF-(1,7978)  9.32014312E-07                    1_GWF-(1,14800)
        331          7         31  4.20729503E-06                     1_GWF-(1,8023)  1.32967798E-06                    1_GWF-(1,14801)
        332          7         32  3.89635745E-06                     1_GWF-(1,8040) -1.43125611E-06                    1_GWF-(1,14801)
        333          7         33  3.05367334E-06                     1_GWF-(1,8336)  1.34447729E-06                    1_GWF-(1,14801)
        334          7         34 -2.60097478E-06                     1_GWF-(1,8083) -1.04430870E-06                    1_GWF-(1,14801)
        335          7         35  2.44887032E-06                     1_GWF-(1,3434)  6.32465656E-07                    1_GWF-(1,14801)
        336          7         36  2.69869880E-06                     1_GWF-(1,7948) -3.44567471E-07                    1_GWF-(1,14801)
        337          7         37 -3.22030133E-06                    1_GWF-(1,26487) -2.90262630E-07                    1_GWF-(1,14801)
        338          7         38 -3.08179437E-06                    1_GWF-(1,26486)  5.15580584E-07                    1_GWF-(1,14801)
        339          7         39 -2.26198815E-06                    1_GWF-(1,26487) -5.25775523E-07                    1_GWF-(1,14801)
        340          7         40  2.21504858E-06                     1_GWF-(1,8188)  5.27074462E-07                    1_GWF-(1,14801)
        341          7         41  2.08444852E-06                     1_GWF-(1,8212) -3.70135090E-07                    1_GWF-(1,14801)
        342          7         42  2.38608433E-06                     1_GWF-(1,8443)  3.14338232E-07                    1_GWF-(1,14801)
        343          7         43  2.41406604E-06                     1_GWF-(1,8448)  2.55738562E-07                    1_GWF-(1,14799)
        344          7         44  1.48334279E-06                     1_GWF-(1,8476) -1.90384275E-07                    1_GWF-(1,14799)
        345          7         45  2.11904251E-06                    1_GWF-(1,26622)  6.37105688E-08                    1_GWF-(1,14799)
        346          7         46  2.38041512E-06                    1_GWF-(1,26649) -1.23143894E-07                    1_GWF-(1,14801)
        347          7         47  1.94856822E-06                    1_GWF-(1,26622) -1.89908341E-07                    1_GWF-(1,14799)
        348          7         48 -1.32353220E-06                     1_GWF-(1,8482)  2.13938123E-07                    1_GWF-(1,14799)
        349          7         49 -1.40278896E-06                     1_GWF-(1,8570) -2.28906586E-07                    1_GWF-(1,14799)
        350          7         50  1.26499744E-06                    1_GWF-(1,11421)  1.62576306E-07                    1_GWF-(1,14799)
        351          8          1 -1.34386071E-06                    1_GWF-(1,26588) -2.56615494E-07                    1_GWF-(1,14799)
        352          8          2  1.38424397E-06                    1_GWF-(1,26588)  1.09193521E-07                    1_GWF-(1,14799)
        353          8          3 -1.76813065E-06                    1_GWF-(1,26588)  2.69678535E-08                    1_GWF-(1,14801)
        354          8          4 -1.56634601E-06                    1_GWF-(1,26543) -8.82228437E-08                    1_GWF-(1,14799)
        355          8          5 -1.45770948E-06                    1_GWF-(1,26588)  1.34163095E-07                    1_GWF-(1,14799)
        356          8          6 -9.51448899E-07                    1_GWF-(1,26543) -1.38515651E-07                    1_GWF-(1,14799)
        357          9          1  7.02400916E-07                    1_GWF-(1,26622)  1.19853236E-07                    1_GWF-(1,14799)
 --------------------------------------------------------------------------------------------------------------------------------------


 UBDSV1 SAVING     FLOW-JA-FACE ON UNIT   1020 AT TIME STEP      1, STRESS PERIOD      1
 UBDSV06 SAVING       DATA-SPDIS IN MODEL ML               PACKAGE NPF             CONNECTED TO MODEL ML               PACKAGE NPF              ON UNIT   1020 AT TIME STEP      1, STRESS PERIOD      1
 UBDSV06 SAVING              WEL IN MODEL ML               PACKAGE ML              CONNECTED TO MODEL ML               PACKAGE WEL_0            ON UNIT   1020 AT TIME STEP      1, STRESS PERIOD      1
 UBDSV06 SAVING              DRN IN MODEL ML               PACKAGE ML              CONNECTED TO MODEL ML               PACKAGE DRN_0            ON UNIT   1020 AT TIME STEP      1, STRESS PERIOD      1
 UBDSV06 SAVING              RIV IN MODEL ML               PACKAGE ML              CONNECTED TO MODEL ML               PACKAGE RIV_0            ON UNIT   1020 AT TIME STEP      1, STRESS PERIOD      1
 UBDSV06 SAVING              GHB IN MODEL ML               PACKAGE ML              CONNECTED TO MODEL ML               PACKAGE GHB_0            ON UNIT   1020 AT TIME STEP      1, STRESS PERIOD      1
 UBDSV06 SAVING              RCH IN MODEL ML               PACKAGE ML              CONNECTED TO MODEL ML               PACKAGE RCHA_0           ON UNIT   1020 AT TIME STEP      1, STRESS PERIOD      1

 HEAD WILL BE SAVED ON UNIT 1021 AT END OF TIME STEP    1, STRESS PERIOD    1


  VOLUME BUDGET FOR ENTIRE MODEL AT END OF TIME STEP    1, STRESS PERIOD   1
  ---------------------------------------------------------------------------------------------------

     CUMULATIVE VOLUME      L**3       RATES FOR THIS TIME STEP      L**3/T          PACKAGE NAME    
     ------------------                 ------------------------                     ----------------

           IN:                                      IN:
           ---                                      ---
                 WEL =           0.0000                   WEL =           0.0000     WEL_0           
                 DRN =           0.0000                   DRN =           0.0000     DRN_0           
                 RIV =           2.8932                   RIV =           0.9644     RIV_0           
                 GHB =           5.7095                   GHB =           1.9032     GHB_0           
                 RCH =           0.4765                   RCH =           0.1588     RCHA_0          

            TOTAL IN =           9.0791              TOTAL IN =           3.0264

          OUT:                                     OUT:
          ----                                     ----
                 WEL =           0.4370                   WEL =           0.1457     WEL_0           
                 DRN =           0.6854                   DRN =           0.2285     DRN_0           
                 RIV =           7.9459                   RIV =           2.6486     RIV_0           
                 GHB =       1.0874E-02                   GHB =       3.6247E-03     GHB_0           
                 RCH =           0.0000                   RCH =           0.0000     RCHA_0          

           TOTAL OUT =           9.0791             TOTAL OUT =           3.0264

            IN - OUT =      -6.0302E-06              IN - OUT =      -2.0101E-06

 PERCENT DISCREPANCY =          -0.00     PERCENT DISCREPANCY =          -0.00




         TIME SUMMARY AT END OF TIME STEP    1 IN STRESS PERIOD    1
                    SECONDS     MINUTES      HOURS       DAYS        YEARS
                    -----------------------------------------------------------
   TIME STEP LENGTH  3.0000     5.00000E-02 8.33333E-04 3.47222E-05 9.50643E-08
 STRESS PERIOD TIME  3.0000     5.00000E-02 8.33333E-04 3.47222E-05 9.50643E-08
         TOTAL TIME  3.0000     5.00000E-02 8.33333E-04 3.47222E-05 9.50643E-08


end timestep

