                                   MODFLOW 6
                U.S. GEOLOGICAL SURVEY MODULAR HYDROLOGIC MODEL
                          GROUNDWATER FLOW MODEL (GWF)
                            VERSION 6.2.2 07/30/2021

   MODFLOW 6 compiled Jul 31 2021 14:22:53 with IFORT compiler (ver. 19.10.3)

This software has been approved for release by the U.S. Geological 
Survey (USGS). Although the software has been subjected to rigorous 
review, the USGS reserves the right to update the software as needed 
pursuant to further analysis and review. No warranty, expressed or 
implied, is made by the USGS or the U.S. Government as to the 
functionality of the software and related material nor shall the 
fact of release constitute any such warranty. Furthermore, the 
software is released on condition that neither the USGS nor the U.S. 
Government shall be held liable for any damages resulting from its 
authorized or unauthorized use. Also refer to the USGS Water 
Resources Software User Rights Notice for complete use, copyright, 
and distribution information.


System command used to initiate simulation:
mf6

MODFLOW was compiled using uniform precision.

Real Variables
  KIND: 8
  TINY (smallest non-zero value):    2.225074-308
  HUGE (largest value):    1.797693+308
  PRECISION: 15
  BIT SIZE: 64

Integer Variables
  KIND: 4
  HUGE (largest value): 2147483647
  BIT SIZE: 32

Long Integer Variables
  KIND: 8
  HUGE (largest value): 9223372036854775807
  BIT SIZE: 64

Logical Variables
  KIND: 4
  BIT SIZE: 32
 

 OPENED ./ml.disv
 FILE TYPE:DISV6                  UNIT 1005   STATUS:OLD                 
 FORMAT:FORMATTED              ACCESS:SEQUENTIAL          
 ACTION:READ                


 OPENED ./ml.ic
 FILE TYPE:IC6                    UNIT 1006   STATUS:OLD                 
 FORMAT:FORMATTED              ACCESS:SEQUENTIAL          
 ACTION:READ                


 OPENED ./ml.npf
 FILE TYPE:NPF6                   UNIT 1007   STATUS:OLD                 
 FORMAT:FORMATTED              ACCESS:SEQUENTIAL          
 ACTION:READ                


 OPENED ./ml.ghb
 FILE TYPE:GHB6                   UNIT 1008   STATUS:OLD                 
 FORMAT:FORMATTED              ACCESS:SEQUENTIAL          
 ACTION:READ                


 OPENED ./ml.rcha
 FILE TYPE:RCH6                   UNIT 1009   STATUS:OLD                 
 FORMAT:FORMATTED              ACCESS:SEQUENTIAL          
 ACTION:READ                


 OPENED ./ml.obs
 FILE TYPE:OBS6                   UNIT 1010   STATUS:OLD                 
 FORMAT:FORMATTED              ACCESS:SEQUENTIAL          
 ACTION:READ                


 OPENED ./ml.oc
 FILE TYPE:OC6                    UNIT 1011   STATUS:OLD                 
 FORMAT:FORMATTED              ACCESS:SEQUENTIAL          
 ACTION:READ                


 OPENED ml.wel
 FILE TYPE:WEL6                   UNIT 1012   STATUS:OLD                 
 FORMAT:FORMATTED              ACCESS:SEQUENTIAL          
 ACTION:READ                


 OPENED ml.drn
 FILE TYPE:DRN6                   UNIT 1013   STATUS:OLD                 
 FORMAT:FORMATTED              ACCESS:SEQUENTIAL          
 ACTION:READ                


 OPENED ml.riv
 FILE TYPE:RIV6                   UNIT 1014   STATUS:OLD                 
 FORMAT:FORMATTED              ACCESS:SEQUENTIAL          
 ACTION:READ                


 DISV -- VERTEX GRID DISCRETIZATION PACKAGE, VERSION 1 : 12/23/2015 - INPUT READ FROM UNIT 1005


 # File generated by Flopy version 3.3.5 on 06/01/2022 at 18:11:39.

 PROCESSING DISCRETIZATION OPTIONS
    MODEL LENGTH UNIT IS METERS
    XORIGIN SPECIFIED AS     405575.681000000    
    YORIGIN SPECIFIED AS     6423306.54000000    
 END OF DISCRETIZATION OPTIONS

 PROCESSING DISCRETIZATION DIMENSIONS
   NLAY = 1
   NCPL = 26674
   NVERT = 27090
 END OF DISCRETIZATION DIMENSIONS

 PROCESSING GRIDDATA
 END PROCESSING GRIDDATA

 PROCESSING VERTICES
   SUCCESSFULLY READ 27090 (X,Y) COORDINATES
   MINIMUM X COORDINATE =     405575.681000000    
   MAXIMUM X COORDINATE =     413975.681000000    
   MINIMUM Y COORDINATE =     6423306.54000000    
   MAXIMUM Y COORDINATE =     6432506.54000000    
 END PROCESSING VERTICES

 PROCESSING CELL2D
   SUCCESSFULLY READ 26674 CELL2D INFORMATION ENTRIES
   MINIMUM X CELL CENTER =     405675.681000000    
   MAXIMUM X CELL CENTER =     413875.681000000    
   MINIMUM Y CELL CENTER =     6423406.54000000    
   MAXIMUM Y CELL CENTER =     6432406.54000000    
   MAXIMUM NUMBER OF CELL2D VERTICES IS 6 FOR CELL 208
 END PROCESSING VERTICES

 NPF -- NODE PROPERTY FLOW PACKAGE, VERSION 1, 3/30/2015 INPUT READ FROM UNIT 1007


 # File generated by Flopy version 3.3.5 on 06/01/2022 at 18:11:41.
 PROCESSING NPF OPTIONS
    CELL-BY-CELL FLOW INFORMATION WILL BE SAVED TO BINARY FILE WHENEVER ICBCFL IS NOT ZERO.
    SPECIFIC DISCHARGE WILL BE CALCULATED AT CELL CENTERS AND WRITTEN TO DATA-SPDIS IN BUDGET FILE WHEN REQUESTED.
 END OF NPF OPTIONS

 WEL   -- WEL PACKAGE, VERSION 8, 2/22/2014 INPUT READ FROM UNIT 1012
 # File generated by Flopy version 3.3.5 on 06/01/2022 at 18:11:42.

 PROCESSING WEL OPTIONS
    WEL BOUNDARIES HAVE NAMES IN LAST COLUMN.
    FLOWS WILL BE SAVED TO BUDGET FILE SPECIFIED IN OUTPUT CONTROL
 END OF WEL OPTIONS

 PROCESSING WEL DIMENSIONS
    MAXBOUND =       9
 END OF WEL DIMENSIONS

 DRN   -- DRN PACKAGE, VERSION 8, 2/22/2014 INPUT READ FROM UNIT 1013
 # File generated by Flopy version 3.3.5 on 06/01/2022 at 18:11:42.

 PROCESSING DRN OPTIONS
    DRN BOUNDARIES HAVE NAMES IN LAST COLUMN.
    FLOWS WILL BE SAVED TO BUDGET FILE SPECIFIED IN OUTPUT CONTROL

 OPENED ml.drn.obs
 FILE TYPE:OBS   UNIT 1016   STATUS:OLD                 
 FORMAT:FORMATTED              ACCESS:SEQUENTIAL          
 ACTION:READ                

 END OF DRN OPTIONS

 PROCESSING DRN DIMENSIONS
    MAXBOUND =     133
 END OF DRN DIMENSIONS

 RIV   -- RIV PACKAGE, VERSION 8, 2/22/2014 INPUT READ FROM UNIT 1014
 # File generated by Flopy version 3.3.5 on 06/01/2022 at 18:11:42.

 PROCESSING RIV OPTIONS
    AUXILIARY RIV VARIABLE: FID             
    RIV BOUNDARIES HAVE NAMES IN LAST COLUMN.
    FLOWS WILL BE SAVED TO BUDGET FILE SPECIFIED IN OUTPUT CONTROL
 END OF RIV OPTIONS

 PROCESSING RIV DIMENSIONS
    MAXBOUND =     794
 END OF RIV DIMENSIONS

 GHB   -- GHB PACKAGE, VERSION 8, 2/22/2014 INPUT READ FROM UNIT 1008
 # File generated by Flopy version 3.3.5 on 06/01/2022 at 18:11:41.

 PROCESSING GHB OPTIONS
    GHB BOUNDARIES HAVE NAMES IN LAST COLUMN.
    FLOWS WILL BE SAVED TO BUDGET FILE SPECIFIED IN OUTPUT CONTROL
 END OF GHB OPTIONS

 PROCESSING GHB DIMENSIONS
    MAXBOUND =     153
 END OF GHB DIMENSIONS

 RCH   -- RCH PACKAGE, VERSION 8, 2/22/2014 INPUT READ FROM UNIT 1009
 # File generated by Flopy version 3.3.5 on 06/01/2022 at 18:11:41.

 PROCESSING RCH OPTIONS
    RECHARGE INPUT WILL BE READ AS ARRAY(S).
    FLOWS WILL BE SAVED TO BUDGET FILE SPECIFIED IN OUTPUT CONTROL
 END OF RCH OPTIONS

 IC -- INITIAL CONDITIONS PACKAGE, VERSION 8, 3/28/2015 INPUT READ FROM UNIT 1006
 # File generated by Flopy version 3.3.5 on 06/01/2022 at 18:11:41.
 PROCESSING GRIDDATA

     INITIAL HEAD =   15.00000    
 END PROCESSING GRIDDATA
 PROCESSING GRIDDATA

                ICELLTYPE = 0

 OPENED ../com_ext/k.txt
 FILE TYPE:OPEN/CLOSE   UNIT 1017   STATUS:OLD                 
 FORMAT:FORMATTED              ACCESS:SEQUENTIAL          
 ACTION:READ                

 K33 not provided.  Assuming K33 = K.
 K22 not provided.  Assuming K22 = K.
 END PROCESSING GRIDDATA

The observation utility is active for "ML"
 # File generated by Flopy version 3.3.5 on 06/01/2022 at 18:11:42.

Processing observation options:

Text output number of digits of precision set to: 10
The PRINT_INPUT option has been specified.


 OBSERVATIONS READ FROM FILE "ml.obs"
 ----------------------------------------------------------------------------------------------------------------------------------------------------------------------------------------------------------------------------
 NAME                                     TYPE                                       TIME         LOCATION DATA                              OUTPUT FILENAME                                                                 
 ----------------------------------------------------------------------------------------------------------------------------------------------------------------------------------------------------------------------------
 PRG                                      CONTINUOUS  HEAD                           ALL TIMES    "1 16523"                                  sim/hds.csv                                                                     
 P8                                       CONTINUOUS  HEAD                           ALL TIMES    "1 10323"                                  sim/hds.csv                                                                     
 P24                                      CONTINUOUS  HEAD                           ALL TIMES    "1 9594"                                   sim/hds.csv                                                                     
 P25                                      CONTINUOUS  HEAD                           ALL TIMES    "1 13966"                                  sim/hds.csv                                                                     
 P32                                      CONTINUOUS  HEAD                           ALL TIMES    "1 15787"                                  sim/hds.csv                                                                     
 P33                                      CONTINUOUS  HEAD                           ALL TIMES    "1 15825"                                  sim/hds.csv                                                                     
 PF                                       CONTINUOUS  HEAD                           ALL TIMES    "1 21048"                                  sim/hds.csv                                                                     
 PH                                       CONTINUOUS  HEAD                           ALL TIMES    "1 20781"                                  sim/hds.csv                                                                     
 PZHM1                                    CONTINUOUS  HEAD                           ALL TIMES    "1 14521"                                  sim/hds.csv                                                                     
 P26                                      CONTINUOUS  HEAD                           ALL TIMES    "1 13141"                                  sim/hds.csv                                                                     
 P27                                      CONTINUOUS  HEAD                           ALL TIMES    "1 8465"                                   sim/hds.csv                                                                     
 P28                                      CONTINUOUS  HEAD                           ALL TIMES    "1 8924"                                   sim/hds.csv                                                                     
 P29                                      CONTINUOUS  HEAD                           ALL TIMES    "1 4524"                                   sim/hds.csv                                                                     
 P30                                      CONTINUOUS  HEAD                           ALL TIMES    "1 5255"                                   sim/hds.csv                                                                     
 R20                                      CONTINUOUS  HEAD                           ALL TIMES    "1 10676"                                  sim/hds.csv                                                                     
 R21                                      CONTINUOUS  HEAD                           ALL TIMES    "1 10403"                                  sim/hds.csv                                                                     
 P34                                      CONTINUOUS  HEAD                           ALL TIMES    "1 15131"                                  sim/hds.csv                                                                     
 P37                                      CONTINUOUS  HEAD                           ALL TIMES    "1 15755"                                  sim/hds.csv                                                                     
 P38                                      CONTINUOUS  HEAD                           ALL TIMES    "1 15045"                                  sim/hds.csv                                                                     
 P39                                      CONTINUOUS  HEAD                           ALL TIMES    "1 9637"                                   sim/hds.csv                                                                     
 P40                                      CONTINUOUS  HEAD                           ALL TIMES    "1 9312"                                   sim/hds.csv                                                                     
 AP1                                      CONTINUOUS  HEAD                           ALL TIMES    "1 9702"                                   sim/hds.csv                                                                     
 RCK1                                     CONTINUOUS  HEAD                           ALL TIMES    "1 15900"                                  sim/hds.csv                                                                     
 RCK2                                     CONTINUOUS  HEAD                           ALL TIMES    "1 15199"                                  sim/hds.csv                                                                     
 P23                                      CONTINUOUS  HEAD                           ALL TIMES    "1 6409"                                   sim/hds.csv                                                                     
 ----------------------------------------------------------------------------------------------------------------------------------------------------------------------------------------------------------------------------


    BINARY GRID INFORMATION WILL BE WRITTEN TO:
      UNIT NUMBER: 1019
      FILE NAME: /srv/common/ptrack/case_study/pst/ml_03/./ml.disv.grb

 OPENED /srv/common/ptrack/case_study/pst/ml_03/./ml.disv.grb
 FILE TYPE:DATA(BINARY)   UNIT 1019   STATUS:REPLACE             
 FORMAT:UNFORMATTED            ACCESS:STREAM              
 ACTION:READWRITE           

      THE LAST TIME STEP WILL BE PRINTED
      THE LAST TIME STEP WILL BE PRINTED
 # File generated by Flopy version 3.3.5 on 06/01/2022 at 18:11:42.

 PROCESSING OC OPTIONS

    BUDGET INFORMATION WILL BE WRITTEN TO:
      UNIT NUMBER: 1020
      FILE NAME: ml.cbc

 OPENED ml.cbc
 FILE TYPE:DATA(BINARY)   UNIT 1020   STATUS:REPLACE             
 FORMAT:UNFORMATTED            ACCESS:STREAM              
 ACTION:READWRITE           

    HEAD INFORMATION WILL BE WRITTEN TO:
      UNIT NUMBER: 1021
      FILE NAME: ml.hds

 OPENED ml.hds
 FILE TYPE:DATA(BINARY)   UNIT 1021   STATUS:REPLACE             
 FORMAT:UNFORMATTED            ACCESS:STREAM              
 ACTION:READWRITE           

 END OF OC OPTIONS

The observation utility is active for "DRN_0"
 # File generated by Flopy version 3.3.5 on 06/01/2022 at 18:11:42.

Processing observation options:



start timestep kper="1" kstp="1" mode="normal"


 BEGIN READING OUTPUT CONTROL FOR STRESS PERIOD 1
      THE LAST TIME STEP WILL BE SAVED
      THE LAST TIME STEP WILL BE SAVED

 END READING OUTPUT CONTROL FOR STRESS PERIOD 1

 OPENED ext/wel_spd_03_1.txt
 FILE TYPE:OPEN/CLOSE   UNIT 1023   STATUS:OLD                 
 FORMAT:FORMATTED              ACCESS:SEQUENTIAL          
 ACTION:READ                


 OPENED ext/drn_spd_03_1.txt
 FILE TYPE:OPEN/CLOSE   UNIT 1024   STATUS:OLD                 
 FORMAT:FORMATTED              ACCESS:SEQUENTIAL          
 ACTION:READ                


 OPENED ext/riv_spd_03_1.txt
 FILE TYPE:OPEN/CLOSE   UNIT 1025   STATUS:OLD                 
 FORMAT:FORMATTED              ACCESS:SEQUENTIAL          
 ACTION:READ                


 OPENED ../com_ext/ghb_spd_1.txt
 FILE TYPE:OPEN/CLOSE   UNIT 1026   STATUS:OLD                 
 FORMAT:FORMATTED              ACCESS:SEQUENTIAL          
 ACTION:READ                


 OPENED ../com_ext/rech_spd_1.txt
 FILE TYPE:OPEN/CLOSE   UNIT 1027   STATUS:OLD                 
 FORMAT:FORMATTED              ACCESS:SEQUENTIAL          
 ACTION:READ                


 SLN_1 INNER ITERATION SUMMARY
 --------------------------------------------------------------------------------------------------------------------------------------
      TOTAL      OUTER      INNER                                                            MAXIMUM                                   
  ITERATION  ITERATION  ITERATION  MAXIMUM CHANGE      MAXIMUM CHANGE MODEL-(CELLID)        RESIDUAL    MAXIMUM RESIDUAL MODEL-(CELLID)
 --------------------------------------------------------------------------------------------------------------------------------------
          1          1          1       22.588319                    1_GWF-(1,26517)      0.19503551                    1_GWF-(1,11179)
          2          1          2       37.418174                    1_GWF-(1,26516)     -0.28358483                    1_GWF-(1,11179)
          3          1          3       48.448849                    1_GWF-(1,26515)     -0.24518431                    1_GWF-(1,15975)
          4          1          4       30.850648                    1_GWF-(1,26513)      0.18635376                    1_GWF-(1,11208)
          5          1          5       24.382216                    1_GWF-(1,26647)      0.15433096                    1_GWF-(1,11202)
          6          1          6       28.483848                    1_GWF-(1,26649)     -0.16766498                    1_GWF-(1,11207)
          7          1          7       22.858738                    1_GWF-(1,26622)      0.16959388                    1_GWF-(1,10966)
          8          1          8       17.834357                    1_GWF-(1,26623)      0.14691922                    1_GWF-(1,10960)
          9          1          9       13.876676                    1_GWF-(1,26543)  7.74019552E-02                    1_GWF-(1,10960)
         10          1         10       13.514782                    1_GWF-(1,26486)  8.13666228E-02                    1_GWF-(1,10967)
         11          1         11       10.247154                    1_GWF-(1,26487)      0.11148303                    1_GWF-(1,10966)
         12          1         12       6.9198172                    1_GWF-(1,26420)  9.15989361E-02                    1_GWF-(1,10960)
         13          1         13       5.9060738                    1_GWF-(1,26422)  6.25116477E-02                    1_GWF-(1,10960)
         14          1         14       4.0581309                    1_GWF-(1,26350)  6.25663473E-02                    1_GWF-(1,10966)
         15          1         15      -2.7466353                    1_GWF-(1,26623)  8.28801542E-02                    1_GWF-(1,10966)
         16          1         16      -2.6631175                    1_GWF-(1,26622)  6.75497849E-02                    1_GWF-(1,10960)
         17          1         17      -3.2682869                    1_GWF-(1,26623)  4.27061846E-02                    1_GWF-(1,11206)
         18          1         18      -3.9240351                    1_GWF-(1,26543)  5.45316922E-02                    1_GWF-(1,10967)
         19          1         19      -5.3887056                    1_GWF-(1,26588)  6.36555335E-02                    1_GWF-(1,10966)
         20          1         20      -4.3000094                    1_GWF-(1,26543)  4.53839461E-02                    1_GWF-(1,10960)
         21          1         21      -3.8416372                    1_GWF-(1,26487) -3.48358614E-02                    1_GWF-(1,11194)
         22          1         22      -4.1635697                    1_GWF-(1,26486)  4.19194784E-02                    1_GWF-(1,10966)
         23          1         23      -3.8226787                    1_GWF-(1,26487)  3.41669077E-02                    1_GWF-(1,10960)
         24          1         24       3.8724903                    1_GWF-(1,11575)  3.24369972E-02                    1_GWF-(1,14799)
         25          1         25       3.0543468                    1_GWF-(1,11707)  3.19483501E-02                    1_GWF-(1,14799)
         26          1         26       3.4907783                    1_GWF-(1,26487) -3.27679184E-02                    1_GWF-(1,11206)
         27          1         27       3.4568616                    1_GWF-(1,26420)  3.72810799E-02                    1_GWF-(1,11206)
         28          1         28       2.5394537                    1_GWF-(1,26543)  4.10247340E-02                    1_GWF-(1,14799)
         29          1         29       2.2769510                    1_GWF-(1,11706)  3.53631636E-02                    1_GWF-(1,14798)
         30          1         30      -2.1666288                    1_GWF-(1,11618)  3.18903515E-02                    1_GWF-(1,14799)
         31          1         31      -2.4847582                    1_GWF-(1,11707) -3.34268021E-02                    1_GWF-(1,11206)
         32          1         32       2.6947562                    1_GWF-(1,26422)  4.17512107E-02                    1_GWF-(1,14799)
         33          1         33      -2.6039980                    1_GWF-(1,26422)  3.64059393E-02                    1_GWF-(1,14798)
         34          1         34      -2.6408083                    1_GWF-(1,26350)  3.66050470E-02                    1_GWF-(1,14799)
         35          1         35      -2.5259168                    1_GWF-(1,26422)  3.04107119E-02                    1_GWF-(1,14801)
         36          1         36      -1.9060041                    1_GWF-(1,26544)  3.31114451E-02                    1_GWF-(1,14799)
         37          1         37      -1.4942563                    1_GWF-(1,26486)  3.45507521E-02                    1_GWF-(1,14799)
         38          1         38      -1.7091408                    1_GWF-(1,11621)  2.54381421E-02                    1_GWF-(1,14801)
         39          1         39      -1.2776215                    1_GWF-(1,26649)  3.46757968E-02                    1_GWF-(1,14799)
         40          1         40       1.8533675                    1_GWF-(1,11621) -3.27051431E-02                    1_GWF-(1,11206)
         41          1         41       1.0846618                    1_GWF-(1,11569)  3.37176999E-02                    1_GWF-(1,14799)
         42          1         42      -1.6539303                    1_GWF-(1,11622) -3.88629679E-02                    1_GWF-(1,11206)
         43          1         43       1.2824042                    1_GWF-(1,26350)  4.46465381E-02                    1_GWF-(1,14799)
         44          1         44       1.2510041                    1_GWF-(1,26217) -4.09827039E-02                    1_GWF-(1,11206)
         45          1         45      -1.6119566                    1_GWF-(1,11622)  4.23696044E-02                    1_GWF-(1,14799)
         46          1         46      0.81227417                    1_GWF-(1,11384)  5.12036214E-02                    1_GWF-(1,14801)
         47          1         47      -1.1596254                    1_GWF-(1,26217)  8.11034770E-02                    1_GWF-(1,14799)
         48          1         48      -1.3187888                    1_GWF-(1,26218) -6.98797848E-02                    1_GWF-(1,14799)
         49          1         49      -1.5198669                    1_GWF-(1,26217)      0.11083236                    1_GWF-(1,14799)
         50          1         50      -1.6334589                    1_GWF-(1,26218)      0.13052228                    1_GWF-(1,14801)
         51          2          1      -166.60545                    1_GWF-(1,26519)     -0.24027594                    1_GWF-(1,26458)
         52          2          2      -63.379939                    1_GWF-(1,26513)  5.79304255E-02                    1_GWF-(1,26458)
         53          2          3      -38.442721                    1_GWF-(1,26637)  7.80953142E-02                    1_GWF-(1,14799)
         54          2          4      -35.233721                    1_GWF-(1,26665)  6.27427901E-02                    1_GWF-(1,14801)
         55          2          5      -23.273229                    1_GWF-(1,26622)  9.65125205E-02                    1_GWF-(1,14799)
         56          2          6      -19.367891                    1_GWF-(1,26588)  8.65724172E-02                    1_GWF-(1,14801)
         57          2          7      -18.524200                    1_GWF-(1,26543)      0.14166725                    1_GWF-(1,14799)
         58          2          8      -13.327690                    1_GWF-(1,26486)     -0.14027650                    1_GWF-(1,14799)
         59          2          9      -9.7852501                    1_GWF-(1,26487)      0.13824939                    1_GWF-(1,14799)
         60          2         10      -7.2740282                    1_GWF-(1,26421)  5.82802394E-02                    1_GWF-(1,14801)
         61          2         11      -7.1807219                    1_GWF-(1,26350)  2.69834587E-02                    1_GWF-(1,14801)
         62          2         12      -4.3197179                    1_GWF-(1,26217)  6.03816972E-02                    1_GWF-(1,14799)
         63          2         13      -2.5048722                    1_GWF-(1,26622)  6.41814053E-02                    1_GWF-(1,14801)
         64          2         14      -1.7976461                    1_GWF-(1,26623)  5.36330223E-02                    1_GWF-(1,14799)
         65          2         15      -1.7167832                    1_GWF-(1,26622)  2.11877203E-02                    1_GWF-(1,14801)
         66          2         16      -1.5943713                    1_GWF-(1,25728)  5.47348291E-02                    1_GWF-(1,14801)
         67          2         17       2.0775624                    1_GWF-(1,26350)      0.11282784                    1_GWF-(1,14799)
         68          2         18       1.8778106                    1_GWF-(1,26422)  9.41001741E-02                    1_GWF-(1,14801)
         69          2         19       1.9895874                    1_GWF-(1,26588)  8.68261148E-02                    1_GWF-(1,14799)
         70          2         20       1.8225560                    1_GWF-(1,26543)  1.46855748E-02                    1_GWF-(1,14801)
         71          2         21       1.9636883                    1_GWF-(1,26588)  8.45247338E-02                    1_GWF-(1,14801)
         72          2         22       2.3021046                    1_GWF-(1,26543)      0.15314146                    1_GWF-(1,14799)
         73          2         23       1.7921726                    1_GWF-(1,26544)      0.16352942                    1_GWF-(1,14801)
         74          2         24      -2.7018357                    1_GWF-(1,26487)      0.13093480                    1_GWF-(1,14799)
         75          2         25      -3.2661657                    1_GWF-(1,26486)  2.33312466E-02                    1_GWF-(1,14799)
         76          2         26      -3.5028773                    1_GWF-(1,26487)      0.14919207                    1_GWF-(1,14801)
         77          2         27      -2.4579428                    1_GWF-(1,26420)      0.27665269                    1_GWF-(1,14799)
         78          2         28       1.6818352                    1_GWF-(1,26217)      0.22566884                    1_GWF-(1,14801)
         79          2         29      -1.5162754                    1_GWF-(1,26327)      0.24084192                    1_GWF-(1,14799)
         80          2         30       1.4994244                    1_GWF-(1,26420)      0.19083263                    1_GWF-(1,14801)
         81          2         31      -1.1591094                    1_GWF-(1,26674)      0.18054699                    1_GWF-(1,14799)
         82          2         32      -1.0760453                    1_GWF-(1,26422)      0.14570870                    1_GWF-(1,14801)
         83          2         33      -1.1082212                    1_GWF-(1,26350)      0.11676199                    1_GWF-(1,14800)
         84          2         34      0.92381780                    1_GWF-(1,26350)      0.10328196                    1_GWF-(1,14801)
         85          2         35       1.3181857                    1_GWF-(1,26422)  7.33044265E-02                    1_GWF-(1,14800)
         86          2         36      0.89793068                    1_GWF-(1,26218)  5.21300881E-02                    1_GWF-(1,14801)
         87          2         37     -0.71538495                    1_GWF-(1,26350)  3.03321834E-02                    1_GWF-(1,14800)
         88          2         38      0.71409017                    1_GWF-(1,26350)  5.43469836E-02                    1_GWF-(1,14799)
         89          2         39      0.88816120                    1_GWF-(1,26422)  6.48349872E-02                    1_GWF-(1,14798)
         90          2         40     -0.92019467                    1_GWF-(1,26486)      0.13022780                    1_GWF-(1,14799)
         91          2         41     -0.97945546                    1_GWF-(1,26420)     -0.13369728                    1_GWF-(1,14799)
         92          2         42     -0.86837467                    1_GWF-(1,26421)      0.17849072                    1_GWF-(1,14799)
         93          2         43      0.95507531                    1_GWF-(1,26421)      0.14426383                    1_GWF-(1,14801)
         94          2         44     -0.74503254                    1_GWF-(1,26218)      0.15012673                    1_GWF-(1,14799)
         95          2         45      -1.0206785                    1_GWF-(1,26420)      0.11779927                    1_GWF-(1,14801)
         96          2         46      0.69926698                    1_GWF-(1,26217)  8.77620155E-02                    1_GWF-(1,14800)
         97          2         47     -0.69948865                    1_GWF-(1,26663)  8.74071448E-02                    1_GWF-(1,14801)
         98          2         48     -0.58654294                    1_GWF-(1,26218)  6.78704188E-02                    1_GWF-(1,14800)
         99          2         49     -0.64124272                    1_GWF-(1,22783)  7.69373157E-02                    1_GWF-(1,14801)
        100          2         50     -0.51828358                    1_GWF-(1,26604)  7.19872669E-02                    1_GWF-(1,14800)
        101          3          1     -0.32453396                    1_GWF-(1,22768)  5.07543097E-02                    1_GWF-(1,14801)
        102          3          2      0.49908276                    1_GWF-(1,22783)  8.75136723E-02                    1_GWF-(1,14800)
        103          3          3      0.51158932                    1_GWF-(1,26623)      0.11458972                    1_GWF-(1,14801)
        104          3          4      0.49230707                    1_GWF-(1,26649)  7.95387858E-02                    1_GWF-(1,14800)
        105          3          5      0.47815280                    1_GWF-(1,26421)      0.12036602                    1_GWF-(1,14801)
        106          3          6      0.40178029                    1_GWF-(1,26194)     -0.13579120                    1_GWF-(1,14801)
        107          3          7     -0.49323352                    1_GWF-(1,26350)      0.12835839                    1_GWF-(1,14801)
        108          3          8     -0.61492341                    1_GWF-(1,26421)      0.10665260                    1_GWF-(1,14800)
        109          3          9      0.57788455                    1_GWF-(1,26422)      0.12759381                    1_GWF-(1,14801)
        110          3         10      0.60831948                    1_GWF-(1,26350)  8.37359676E-02                    1_GWF-(1,14800)
        111          3         11      0.46956216                    1_GWF-(1,26486)  5.97911873E-02                    1_GWF-(1,14801)
        112          3         12     -0.60251660                    1_GWF-(1,26422)  3.38713559E-02                    1_GWF-(1,14800)
        113          3         13      0.40634105                    1_GWF-(1,26422)  3.10180582E-02                    1_GWF-(1,10966)
        114          3         14      0.41795283                    1_GWF-(1,26350)  4.24367447E-02                    1_GWF-(1,14799)
        115          3         15     -0.52120586                    1_GWF-(1,26350)  3.74529930E-02                    1_GWF-(1,14798)
        116          3         16     -0.54000660                    1_GWF-(1,26422)  6.89421579E-02                    1_GWF-(1,14799)
        117          3         17      0.43965152                    1_GWF-(1,26422)  4.75141391E-02                    1_GWF-(1,14800)
        118          3         18      0.45788580                    1_GWF-(1,26350)  6.47862276E-02                    1_GWF-(1,14801)
        119          3         19      0.42666997                    1_GWF-(1,26421)  7.28806222E-02                    1_GWF-(1,14800)
        120          3         20      0.44635157                    1_GWF-(1,26659)  8.00039188E-02                    1_GWF-(1,14801)
        121          3         21     -0.47517837                    1_GWF-(1,26420)  7.22746386E-02                    1_GWF-(1,14800)
        122          3         22     -0.46809914                    1_GWF-(1,11442)  8.99179462E-02                    1_GWF-(1,14801)
        123          3         23     -0.52057942                    1_GWF-(1,26217)  7.91752193E-02                    1_GWF-(1,14800)
        124          3         24     -0.43198041                    1_GWF-(1,26421)  6.60483785E-02                    1_GWF-(1,14801)
        125          3         25      0.70490529                    1_GWF-(1,26487) -4.22297650E-02                    1_GWF-(1,10966)
        126          3         26      0.86641703                    1_GWF-(1,26420) -2.23995279E-02                    1_GWF-(1,14799)
        127          3         27      0.77081606                    1_GWF-(1,26487)  3.16517306E-02                    1_GWF-(1,14801)
        128          3         28     -0.54834076                    1_GWF-(1,26487)  4.28728324E-02                    1_GWF-(1,14800)
        129          3         29     -0.62348532                    1_GWF-(1,26486)  4.89835479E-02                    1_GWF-(1,14801)
        130          3         30     -0.58588520                    1_GWF-(1,26544)  3.66285517E-02                    1_GWF-(1,14799)
        131          3         31     -0.53741375                    1_GWF-(1,26486) -2.80683999E-02                    1_GWF-(1,14799)
        132          3         32      0.61645594                    1_GWF-(1,26543)  1.99137863E-02                    1_GWF-(1,14801)
        133          3         33     -0.59746151                    1_GWF-(1,26543)  3.65518574E-02                    1_GWF-(1,14800)
        134          3         34     -0.57660202                    1_GWF-(1,26588)  4.35127056E-02                    1_GWF-(1,14801)
        135          3         35      0.53828501                    1_GWF-(1,26588)  4.92322336E-02                    1_GWF-(1,14799)
        136          3         36      0.44302067                    1_GWF-(1,26665) -3.67913369E-02                    1_GWF-(1,14799)
        137          3         37      0.46078755                    1_GWF-(1,26623)  2.62496563E-02                    1_GWF-(1,14799)
        138          3         38      0.61249261                    1_GWF-(1,26622) -1.85253077E-02                    1_GWF-(1,10966)
        139          3         39      0.47403012                    1_GWF-(1,26649) -3.33929844E-02                    1_GWF-(1,14799)
        140          3         40     -0.46136940                    1_GWF-(1,26649)  4.83880721E-02                    1_GWF-(1,14799)
        141          3         41     -0.45335593                    1_GWF-(1,26622) -3.56710948E-02                    1_GWF-(1,14799)
        142          3         42     -0.58678775                    1_GWF-(1,26665)  1.24444417E-02                    1_GWF-(1,10966)
        143          3         43     -0.56155583                    1_GWF-(1,26666) -2.73018656E-02                    1_GWF-(1,10966)
        144          3         44     -0.43952844                    1_GWF-(1,26665) -3.98735517E-02                    1_GWF-(1,14799)
        145          3         45      0.56880516                    1_GWF-(1,26665)  6.21720127E-02                    1_GWF-(1,14799)
        146          3         46      0.48396852                    1_GWF-(1,26666) -6.06074963E-02                    1_GWF-(1,14799)
        147          3         47     -0.32040935                    1_GWF-(1,25816)  7.71654538E-02                    1_GWF-(1,14799)
        148          3         48      0.48575792                    1_GWF-(1,11442) -6.31202837E-02                    1_GWF-(1,14799)
        149          3         49     -0.40576901                    1_GWF-(1,11442)  9.01344827E-02                    1_GWF-(1,14799)
        150          3         50     -0.38531606                    1_GWF-(1,26637) -6.95899099E-02                    1_GWF-(1,14799)
        151          4          1      -1.0767519                    1_GWF-(1,16215)  2.30876738E-02                    1_GWF-(1,14799)
        152          4          2     -0.84390722                    1_GWF-(1,16130) -7.15018983E-02                    1_GWF-(1,14799)
        153          4          3      0.39895324                    1_GWF-(1,16130)      0.10006699                    1_GWF-(1,14799)
        154          4          4      0.47471575                    1_GWF-(1,16126) -6.97086691E-02                    1_GWF-(1,14799)
        155          4          5     -0.48475828                    1_GWF-(1,16130)  6.66270875E-02                    1_GWF-(1,14799)
        156          4          6      0.48717023                    1_GWF-(1,16130) -5.28297202E-02                    1_GWF-(1,14799)
        157          4          7      0.31615198                    1_GWF-(1,16126)  4.34346147E-02                    1_GWF-(1,14799)
        158          4          8     -0.31200537                    1_GWF-(1,26665) -1.88464588E-02                    1_GWF-(1,14799)
        159          4          9      0.32669034                    1_GWF-(1,26665) -6.63812111E-03                    1_GWF-(1,10966)
        160          4         10      0.31546919                    1_GWF-(1,26666)  2.63579782E-02                    1_GWF-(1,14799)
        161          4         11      0.31028155                    1_GWF-(1,26665) -3.21079258E-02                    1_GWF-(1,14799)
        162          4         12     -0.24416335                    1_GWF-(1,26649)  2.98120906E-02                    1_GWF-(1,14799)
        163          4         13      0.26297981                    1_GWF-(1,26649)  1.18681392E-02                    1_GWF-(1,14801)
        164          4         14      0.29815019                    1_GWF-(1,26622) -9.24093291E-03                    1_GWF-(1,14799)
        165          4         15      0.24810391                    1_GWF-(1,26623)  2.78863093E-02                    1_GWF-(1,14799)
        166          4         16     -0.24653364                    1_GWF-(1,26623) -3.03658401E-02                    1_GWF-(1,14799)
        167          4         17     -0.20766045                    1_GWF-(1,26622)  2.59173924E-02                    1_GWF-(1,14799)
        168          4         18      0.24040364                    1_GWF-(1,11659)  1.48173976E-02                    1_GWF-(1,14801)
        169          4         19     -0.31838949                    1_GWF-(1,26543)  9.25483911E-03                    1_GWF-(1,14800)
        170          4         20     -0.37422558                    1_GWF-(1,26588)  1.68120336E-02                    1_GWF-(1,14799)
        171          4         21     -0.30480635                    1_GWF-(1,26543) -1.74120201E-02                    1_GWF-(1,14799)
        172          4         22      0.18162816                    1_GWF-(1,26486)  1.68274903E-02                    1_GWF-(1,14799)
        173          4         23      0.18923084                    1_GWF-(1,26487)  1.62085717E-02                    1_GWF-(1,14801)
        174          4         24      0.24713182                    1_GWF-(1,26486)  1.15333402E-02                    1_GWF-(1,14800)
        175          4         25      0.27751948                    1_GWF-(1,26487)  1.17336438E-02                    1_GWF-(1,14799)
        176          4         26      0.24709212                    1_GWF-(1,26486) -1.15471445E-02                    1_GWF-(1,14799)
        177          4         27      0.22870727                    1_GWF-(1,26487)  1.72835193E-02                    1_GWF-(1,14800)
        178          4         28      0.16088244                    1_GWF-(1,26420)  2.29425709E-02                    1_GWF-(1,14801)
        179          4         29      0.19629255                    1_GWF-(1,26218)  2.20417020E-02                    1_GWF-(1,14800)
        180          4         30      0.13159357                    1_GWF-(1,26217)  2.26291901E-02                    1_GWF-(1,14801)
        181          4         31      0.12226213                    1_GWF-(1,26486)  2.00689619E-02                    1_GWF-(1,14800)
        182          4         32 -9.91238122E-02                    1_GWF-(1,26623)  2.14395972E-02                    1_GWF-(1,14801)
        183          4         33     -0.11443113                    1_GWF-(1,26544)  1.73232498E-02                    1_GWF-(1,14800)
        184          4         34     -0.15625841                    1_GWF-(1,26486)  1.82954230E-02                    1_GWF-(1,14801)
        185          4         35     -0.15646879                    1_GWF-(1,26350)  1.15418748E-02                    1_GWF-(1,14800)
        186          4         36     -0.19100303                    1_GWF-(1,26422)  1.41255597E-02                    1_GWF-(1,14799)
        187          4         37     -0.15694140                    1_GWF-(1,26350)  7.78563649E-03                    1_GWF-(1,14798)
        188          4         38     -0.13696236                    1_GWF-(1,26422)  1.03629103E-02                    1_GWF-(1,14799)
        189          4         39     -0.12445779                    1_GWF-(1,26350)  5.97535074E-03                    1_GWF-(1,10966)
        190          4         40     -0.10866750                    1_GWF-(1,26422)  7.81722823E-03                    1_GWF-(1,14800)
        191          4         41 -9.32263333E-02                    1_GWF-(1,26350)  1.30705908E-02                    1_GWF-(1,14801)
        192          4         42  8.87612207E-02                    1_GWF-(1,26350)  1.46065357E-02                    1_GWF-(1,14800)
        193          4         43      0.11973143                    1_GWF-(1,26422)  1.81983053E-02                    1_GWF-(1,14801)
        194          4         44      0.13725398                    1_GWF-(1,26350)  1.74936205E-02                    1_GWF-(1,14800)
        195          4         45      0.12546698                    1_GWF-(1,26422)  2.08328745E-02                    1_GWF-(1,14801)
        196          4         46  9.20730816E-02                    1_GWF-(1,26420)  1.85737850E-02                    1_GWF-(1,14800)
        197          4         47  8.50235307E-02                    1_GWF-(1,26486)  2.01130307E-02                    1_GWF-(1,14801)
        198          4         48  7.05358600E-02                    1_GWF-(1,26589)  1.46207148E-02                    1_GWF-(1,14800)
        199          4         49 -7.06774981E-02                    1_GWF-(1,26420)  1.60790799E-02                    1_GWF-(1,14801)
        200          4         50 -7.52016829E-02                    1_GWF-(1,26218)  1.27294120E-02                    1_GWF-(1,14800)
        201          5          1 -8.98615844E-02                    1_GWF-(1,11378)  5.62846610E-03                    1_GWF-(1,14801)
        202          5          2 -9.50775918E-02                    1_GWF-(1,11425)  1.74278373E-02                    1_GWF-(1,14800)
        203          5          3 -5.70049765E-02                    1_GWF-(1,26589)  1.98876833E-02                    1_GWF-(1,14801)
        204          5          4 -8.52759391E-02                    1_GWF-(1,26486)  1.10237891E-02                    1_GWF-(1,14800)
        205          5          5     -0.11520497                    1_GWF-(1,11369)  1.63970296E-02                    1_GWF-(1,14801)
        206          5          6      0.12455627                    1_GWF-(1,11369) -1.77192211E-02                    1_GWF-(1,14801)
        207          5          7     -0.11057431                    1_GWF-(1,26350)  1.44445856E-02                    1_GWF-(1,14801)
        208          5          8     -0.11259681                    1_GWF-(1,11369)  1.18525283E-02                    1_GWF-(1,14800)
        209          5          9      0.16081252                    1_GWF-(1,11369)  1.34317430E-02                    1_GWF-(1,14801)
        210          5         10  7.95977215E-02                    1_GWF-(1,26350)  8.10664701E-03                    1_GWF-(1,14800)
        211          5         11 -8.53718918E-02                    1_GWF-(1,11454)  5.24137168E-03                    1_GWF-(1,14801)
        212          5         12      0.14719602                    1_GWF-(1,11369)  6.80686813E-03                    1_GWF-(1,14799)
        213          5         13      0.11662510                    1_GWF-(1,26422)  5.36458372E-03                    1_GWF-(1,14798)
        214          5         14      0.11383119                    1_GWF-(1,26350)  8.14052023E-03                    1_GWF-(1,14799)
        215          5         15     -0.12606130                    1_GWF-(1,11453) -7.06540393E-03                    1_GWF-(1,14799)
        216          5         16      0.12703014                    1_GWF-(1,11453)  1.04155314E-02                    1_GWF-(1,14799)
        217          5         17  8.40937633E-02                    1_GWF-(1,11458)  7.43555361E-03                    1_GWF-(1,14800)
        218          5         18     -0.12461402                    1_GWF-(1,11453)  9.47520695E-03                    1_GWF-(1,14801)
        219          5         19      0.18740687                    1_GWF-(1,11453)  9.54870345E-03                    1_GWF-(1,14800)
        220          5         20 -9.67656038E-02                    1_GWF-(1,11453)  1.05781909E-02                    1_GWF-(1,14801)
        221          5         21     -0.10948716                    1_GWF-(1,11458)  9.14158624E-03                    1_GWF-(1,14800)
        222          5         22      0.17065368                    1_GWF-(1,11453)  8.85149998E-03                    1_GWF-(1,14801)
        223          5         23     -0.12531347                    1_GWF-(1,26588)  4.82453421E-03                    1_GWF-(1,14799)
        224          5         24     -0.11566856                    1_GWF-(1,26543)  4.55372240E-03                    1_GWF-(1,14800)
        225          5         25      0.14834230                    1_GWF-(1,11453)  9.20224019E-03                    1_GWF-(1,14801)
        226          5         26      0.10134069                    1_GWF-(1,11458) -7.93488823E-03                    1_GWF-(1,14801)
        227          5         27     -0.10078892                    1_GWF-(1,11453)  7.69800838E-03                    1_GWF-(1,14801)
        228          5         28      0.13401316                    1_GWF-(1,11453)  6.41500941E-03                    1_GWF-(1,14799)
        229          5         29 -9.65718975E-02                    1_GWF-(1,11438) -4.91810459E-03                    1_GWF-(1,14799)
        230          5         30 -7.87949963E-02                    1_GWF-(1,11453)  4.26061769E-03                    1_GWF-(1,14799)
        231          5         31     -0.10786588                    1_GWF-(1,11417)  3.62537080E-03                    1_GWF-(1,14800)
        232          5         32  7.60345258E-02                    1_GWF-(1,11458)  5.20003624E-03                    1_GWF-(1,14801)
        233          5         33  8.80104624E-02                    1_GWF-(1,11417)  6.40923778E-03                    1_GWF-(1,14799)
        234          5         34     -0.11042547                    1_GWF-(1,11417) -7.30134581E-03                    1_GWF-(1,14799)
        235          5         35 -8.30713347E-02                    1_GWF-(1,11438)  7.89405658E-03                    1_GWF-(1,14799)
        236          5         36 -7.39303671E-02                    1_GWF-(1,11453) -4.22411623E-03                    1_GWF-(1,14799)
        237          5         37 -8.27485000E-02                    1_GWF-(1,11417)  2.35489012E-03                    1_GWF-(1,14801)
        238          5         38 -6.88038137E-02                    1_GWF-(1,11438)  4.37155172E-03                    1_GWF-(1,14799)
        239          5         39 -7.88138166E-02                    1_GWF-(1,11453) -6.04965809E-03                    1_GWF-(1,14799)
        240          5         40 -6.85443336E-02                    1_GWF-(1,11417)  7.61173167E-03                    1_GWF-(1,14799)
        241          5         41 -6.70059034E-02                    1_GWF-(1,26487) -3.67365007E-03                    1_GWF-(1,14799)
        242          5         42 -7.05472156E-02                    1_GWF-(1,26665)  2.04965440E-03                    1_GWF-(1,10966)
        243          5         43 -4.96434752E-02                    1_GWF-(1,11458)  5.21740548E-03                    1_GWF-(1,14799)
        244          5         44 -5.17757300E-02                    1_GWF-(1,11438) -6.89762878E-03                    1_GWF-(1,14799)
        245          5         45  7.15595721E-02                    1_GWF-(1,11417)  9.50439993E-03                    1_GWF-(1,14799)
        246          5         46  5.25139000E-02                    1_GWF-(1,16130) -9.62791597E-03                    1_GWF-(1,14799)
        247          5         47 -6.41632220E-02                    1_GWF-(1,11438)  1.24234151E-02                    1_GWF-(1,14799)
        248          5         48 -5.03858428E-02                    1_GWF-(1,11437) -1.08596857E-02                    1_GWF-(1,14799)
        249          5         49  9.24098016E-02                    1_GWF-(1,16130)  7.66207715E-03                    1_GWF-(1,14799)
        250          5         50  9.12437737E-02                    1_GWF-(1,11458) -1.01400968E-02                    1_GWF-(1,14799)
        251          6          1  9.78242781E-02                    1_GWF-(1,11438)  8.26674453E-03                    1_GWF-(1,14799)
        252          6          2 -4.61289070E-02                    1_GWF-(1,16130) -9.97566481E-03                    1_GWF-(1,14799)
        253          6          3 -3.93972853E-02                    1_GWF-(1,11438)  1.08250383E-02                    1_GWF-(1,14799)
        254          6          4  6.39677433E-02                    1_GWF-(1,11438) -8.52134571E-03                    1_GWF-(1,14799)
        255          6          5  3.50352540E-02                    1_GWF-(1,11458)  9.00087929E-03                    1_GWF-(1,14799)
        256          6          6 -3.63241392E-02                    1_GWF-(1,26665) -7.07709807E-03                    1_GWF-(1,14799)
        257          6          7 -4.47831308E-02                    1_GWF-(1,11442)  5.33274151E-03                    1_GWF-(1,14799)
        258          6          8 -4.34446492E-02                    1_GWF-(1,26665)  1.64610639E-03                    1_GWF-(1,14801)
        259          6          9  4.95710257E-02                    1_GWF-(1,26665)  1.87277475E-03                    1_GWF-(1,14798)
        260          6         10  4.99870281E-02                    1_GWF-(1,26487)  5.35311421E-03                    1_GWF-(1,14799)
        261          6         11  4.18850861E-02                    1_GWF-(1,26420) -4.71463384E-03                    1_GWF-(1,14799)
        262          6         12  4.08230133E-02                    1_GWF-(1,26622)  3.73520614E-03                    1_GWF-(1,14799)
        263          6         13  4.45268146E-02                    1_GWF-(1,11438)  1.67557619E-03                    1_GWF-(1,14801)
        264          6         14 -3.27181807E-02                    1_GWF-(1,26666) -1.79728284E-03                    1_GWF-(1,14799)
        265          6         15 -3.79130487E-02                    1_GWF-(1,26665)  4.13409931E-03                    1_GWF-(1,14799)
        266          6         16 -3.51306583E-02                    1_GWF-(1,26350) -3.98867726E-03                    1_GWF-(1,14799)
        267          6         17 -3.45750021E-02                    1_GWF-(1,11453)  3.31434260E-03                    1_GWF-(1,14799)
        268          6         18  3.84645988E-02                    1_GWF-(1,11453)  2.45621422E-03                    1_GWF-(1,14801)
        269          6         19 -3.31962228E-02                    1_GWF-(1,26543)  1.94666961E-03                    1_GWF-(1,14800)
        270          6         20 -4.74810245E-02                    1_GWF-(1,26588)  1.23985500E-03                    1_GWF-(1,14799)
        271          6         21 -4.11348209E-02                    1_GWF-(1,26543) -2.03486601E-03                    1_GWF-(1,14799)
        272          6         22 -2.86873456E-02                    1_GWF-(1,26588)  2.72606990E-03                    1_GWF-(1,14799)
        273          6         23 -3.74471281E-02                    1_GWF-(1,11453)  2.79639658E-03                    1_GWF-(1,14801)
        274          6         24  3.19233633E-02                    1_GWF-(1,11453)  2.92368485E-03                    1_GWF-(1,14800)
        275          6         25 -2.74075963E-02                    1_GWF-(1,26218)  3.29838418E-03                    1_GWF-(1,14801)
        276          6         26 -3.61772437E-02                    1_GWF-(1,11453)  2.02249811E-03                    1_GWF-(1,14800)
        277          6         27  3.78909073E-02                    1_GWF-(1,26589)  1.41921500E-03                    1_GWF-(1,14799)
        278          6         28  4.28479488E-02                    1_GWF-(1,26588)  2.24198703E-03                    1_GWF-(1,14801)
        279          6         29 -3.66706696E-02                    1_GWF-(1,11453) -2.54644196E-03                    1_GWF-(1,14801)
        280          6         30 -1.89768854E-02                    1_GWF-(1,11417)  3.09825332E-03                    1_GWF-(1,14801)
        281          6         31  3.07757021E-02                    1_GWF-(1,26486)  2.77984339E-03                    1_GWF-(1,14800)
        282          6         32 -3.54413452E-02                    1_GWF-(1,11453)  2.88265134E-03                    1_GWF-(1,14801)
        283          6         33  2.49755187E-02                    1_GWF-(1,11453)  2.05218910E-03                    1_GWF-(1,14800)
        284          6         34 -1.94978377E-02                    1_GWF-(1,26486)  2.28086377E-03                    1_GWF-(1,14801)
        285          6         35 -2.46016594E-02                    1_GWF-(1,11453)  1.61817360E-03                    1_GWF-(1,14800)
        286          6         36 -2.60571904E-02                    1_GWF-(1,26422)  2.05911376E-03                    1_GWF-(1,14799)
        287          6         37 -2.60346448E-02                    1_GWF-(1,26350)  1.27160683E-03                    1_GWF-(1,14798)
        288          6         38 -2.82880151E-02                    1_GWF-(1,26422)  1.66898087E-03                    1_GWF-(1,14799)
        289          6         39 -2.72335786E-02                    1_GWF-(1,11369)  1.29211444E-03                    1_GWF-(1,10966)
        290          6         40 -1.72129802E-02                    1_GWF-(1,26422)  1.24819342E-03                    1_GWF-(1,14800)
        291          6         41  1.98096963E-02                    1_GWF-(1,11380)  2.04954547E-03                    1_GWF-(1,14801)
        292          6         42 -2.31270784E-02                    1_GWF-(1,11369)  1.96873260E-03                    1_GWF-(1,14800)
        293          6         43  1.55287362E-02                    1_GWF-(1,26422)  2.35693689E-03                    1_GWF-(1,14801)
        294          6         44  1.95997971E-02                    1_GWF-(1,11380)  2.45665021E-03                    1_GWF-(1,14800)
        295          6         45  1.68506149E-02                    1_GWF-(1,26421)  2.57156826E-03                    1_GWF-(1,14801)
        296          6         46 -1.65003533E-02                    1_GWF-(1,11437)  1.91266169E-03                    1_GWF-(1,14800)
        297          6         47  2.38492119E-02                    1_GWF-(1,11380)  2.64356552E-03                    1_GWF-(1,14801)
        298          6         48 -2.05106215E-02                    1_GWF-(1,11454)  2.30062702E-03                    1_GWF-(1,14800)
        299          6         49  1.58319827E-02                    1_GWF-(1,11417)  2.18478940E-03                    1_GWF-(1,14801)
        300          6         50  2.65239494E-02                    1_GWF-(1,11380)  1.97146617E-03                    1_GWF-(1,14800)
        301          7          1 -2.32246507E-02                    1_GWF-(1,11380)  2.06839844E-03                    1_GWF-(1,14801)
        302          7          2 -1.12464793E-02                    1_GWF-(1,26587)  2.32671948E-03                    1_GWF-(1,14800)
        303          7          3  1.76527114E-02                    1_GWF-(1,11380)  2.57578994E-03                    1_GWF-(1,14801)
        304          7          4 -1.70700860E-02                    1_GWF-(1,11380)  1.73559252E-03                    1_GWF-(1,14800)
        305          7          5 -1.52449658E-02                    1_GWF-(1,11369)  2.23980685E-03                    1_GWF-(1,14801)
        306          7          6  1.75299062E-02                    1_GWF-(1,11369)  2.15959104E-03                    1_GWF-(1,14800)
        307          7          7 -1.77937945E-02                    1_GWF-(1,26350)  2.09435116E-03                    1_GWF-(1,14801)
        308          7          8 -1.46193589E-02                    1_GWF-(1,26422)  1.60536295E-03                    1_GWF-(1,14800)
        309          7          9  1.90885719E-02                    1_GWF-(1,11369)  1.64781075E-03                    1_GWF-(1,14801)
        310          7         10 -1.21475274E-02                    1_GWF-(1,11380)  1.06435754E-03                    1_GWF-(1,14800)
        311          7         11  1.38059935E-02                    1_GWF-(1,26422)  8.97811960E-04                    1_GWF-(1,10966)
        312          7         12  1.80027940E-02                    1_GWF-(1,26350)  1.14698366E-03                    1_GWF-(1,14799)
        313          7         13  1.99386170E-02                    1_GWF-(1,26422)  1.16593717E-03                    1_GWF-(1,10966)
        314          7         14  1.83695788E-02                    1_GWF-(1,26350)  1.39595791E-03                    1_GWF-(1,14799)
        315          7         15  1.71030275E-02                    1_GWF-(1,26422) -1.01060793E-03                    1_GWF-(1,14799)
        316          7         16  1.13141168E-02                    1_GWF-(1,26350)  1.32689359E-03                    1_GWF-(1,14799)
        317          7         17  1.20003995E-02                    1_GWF-(1,11458)  1.03891231E-03                    1_GWF-(1,14800)
        318          7         18  1.30529353E-02                    1_GWF-(1,11416)  1.33325219E-03                    1_GWF-(1,14801)
        319          7         19  1.38358381E-02                    1_GWF-(1,26623)  1.20128227E-03                    1_GWF-(1,14800)
        320          7         20  1.71542844E-02                    1_GWF-(1,26622)  9.81908512E-04                    1_GWF-(1,14801)
        321          7         21  1.40030647E-02                    1_GWF-(1,26649)  6.52253935E-04                    1_GWF-(1,14799)
        322          7         22 -1.63022593E-02                    1_GWF-(1,26623)  8.71699120E-04                    1_GWF-(1,14800)
        323          7         23 -1.84127181E-02                    1_GWF-(1,26622)  1.58882529E-03                    1_GWF-(1,14801)
        324          7         24 -1.36245926E-02                    1_GWF-(1,26649)  1.51697582E-03                    1_GWF-(1,14800)
        325          7         25 -1.05649648E-02                    1_GWF-(1,26486)  1.57980431E-03                    1_GWF-(1,14801)
        326          7         26  1.25501496E-02                    1_GWF-(1,11458)  1.25257840E-03                    1_GWF-(1,14800)
        327          7         27 -1.04679470E-02                    1_GWF-(1,11458)  1.08035239E-03                    1_GWF-(1,14801)
        328          7         28  1.18315090E-02                    1_GWF-(1,26649)  8.01657280E-04                    1_GWF-(1,14799)
        329          7         29  1.24999198E-02                    1_GWF-(1,26622)  2.79897127E-04                    1_GWF-(1,14800)
        330          7         30  1.22025699E-02                    1_GWF-(1,26543)  9.12270774E-04                    1_GWF-(1,14801)
        331          7         31  9.22017176E-03                    1_GWF-(1,26487) -1.03282444E-03                    1_GWF-(1,10966)
        332          7         32  9.65061388E-03                    1_GWF-(1,11458)  7.96491876E-04                    1_GWF-(1,14801)
        333          7         33  9.65504112E-03                    1_GWF-(1,26487)  9.72624188E-04                    1_GWF-(1,14799)
        334          7         34  1.05569873E-02                    1_GWF-(1,26420) -7.15787007E-04                    1_GWF-(1,14799)
        335          7         35  9.86622372E-03                    1_GWF-(1,26422)  4.28504395E-04                    1_GWF-(1,14799)
        336          7         36  9.98318702E-03                    1_GWF-(1,26350) -6.19000889E-04                    1_GWF-(1,10966)
        337          7         37 -1.00978710E-02                    1_GWF-(1,26588)  7.46457935E-04                    1_GWF-(1,14801)
        338          7         38 -9.59935247E-03                    1_GWF-(1,26589)  1.17849614E-03                    1_GWF-(1,14799)
        339          7         39 -9.00694785E-03                    1_GWF-(1,26588) -1.05137622E-03                    1_GWF-(1,14799)
        340          7         40 -1.04931625E-02                    1_GWF-(1,26665)  9.68782894E-04                    1_GWF-(1,14799)
        341          7         41 -1.21503092E-02                    1_GWF-(1,26666) -3.32106025E-04                    1_GWF-(1,10966)
        342          7         42 -1.11793739E-02                    1_GWF-(1,26665)  4.41664680E-04                    1_GWF-(1,10966)
        343          7         43  7.79557733E-03                    1_GWF-(1,26665)  8.80225055E-04                    1_GWF-(1,14799)
        344          7         44  7.23465311E-03                    1_GWF-(1,26666) -1.03643709E-03                    1_GWF-(1,14799)
        345          7         45  7.36093377E-03                    1_GWF-(1,26665)  1.37064466E-03                    1_GWF-(1,14799)
        346          7         46 -6.73380604E-03                    1_GWF-(1,11453) -1.32936779E-03                    1_GWF-(1,14799)
        347          7         47  5.96637132E-03                    1_GWF-(1,26217)  1.56682247E-03                    1_GWF-(1,14799)
        348          7         48  6.52061973E-03                    1_GWF-(1,26218) -1.44913914E-03                    1_GWF-(1,14799)
        349          7         49  8.21945569E-03                    1_GWF-(1,16130)  1.43532612E-03                    1_GWF-(1,14799)
        350          7         50  8.93709522E-03                    1_GWF-(1,16126) -1.55975369E-03                    1_GWF-(1,14799)
        351          8          1 -3.04983425E-02                    1_GWF-(1,11455)  1.46128674E-03                    1_GWF-(1,14799)
        352          8          2 -1.69383973E-02                    1_GWF-(1,11456) -1.47468844E-03                    1_GWF-(1,14799)
        353          8          3  1.03644406E-02                    1_GWF-(1,11455)  1.55010578E-03                    1_GWF-(1,14799)
        354          8          4  1.05811984E-02                    1_GWF-(1,11459) -1.33190786E-03                    1_GWF-(1,14799)
        355          8          5  9.16189916E-03                    1_GWF-(1,11458)  1.34528163E-03                    1_GWF-(1,14799)
        356          8          6 -8.81469304E-03                    1_GWF-(1,11459) -9.80720910E-04                    1_GWF-(1,14799)
        357          8          7 -8.52883437E-03                    1_GWF-(1,11439)  8.03962134E-04                    1_GWF-(1,14799)
        358          8          8 -8.11353706E-03                    1_GWF-(1,11438)  3.03311889E-04                    1_GWF-(1,14798)
        359          8          9  7.68821812E-03                    1_GWF-(1,11380) -2.42136542E-04                    1_GWF-(1,10966)
        360          8         10  8.40398021E-03                    1_GWF-(1,26666)  6.55128096E-04                    1_GWF-(1,14799)
        361          8         11  7.35723756E-03                    1_GWF-(1,26665) -7.52413490E-04                    1_GWF-(1,14799)
        362          8         12 -5.69872327E-03                    1_GWF-(1,11460)  7.89321110E-04                    1_GWF-(1,14799)
        363          8         13  7.32452058E-03                    1_GWF-(1,11455) -4.36495715E-04                    1_GWF-(1,14799)
        364          8         14  7.54037511E-03                    1_GWF-(1,11456)  2.92013628E-04                    1_GWF-(1,14800)
        365          8         15 -5.82062804E-03                    1_GWF-(1,26350)  2.48406547E-04                    1_GWF-(1,10966)
        366          8         16 -7.90449493E-03                    1_GWF-(1,11458) -3.82111443E-04                    1_GWF-(1,14799)
        367          8         17 -5.49316533E-03                    1_GWF-(1,26420)  4.91532322E-04                    1_GWF-(1,14799)
        368          8         18  5.60520264E-03                    1_GWF-(1,11458) -3.66687998E-04                    1_GWF-(1,14799)
        369          8         19 -5.43376589E-03                    1_GWF-(1,11458)  3.75194801E-04                    1_GWF-(1,14800)
        370          8         20 -4.32828043E-03                    1_GWF-(1,26487)  3.88657584E-04                    1_GWF-(1,14801)
        371          8         21 -5.22589698E-03                    1_GWF-(1,26543) -2.05797015E-04                    1_GWF-(1,10966)
        372          8         22 -5.10735406E-03                    1_GWF-(1,26622)  3.05594362E-04                    1_GWF-(1,14799)
        373          8         23 -4.61827683E-03                    1_GWF-(1,26649)  3.75696947E-04                    1_GWF-(1,14801)
        374          8         24 -3.81429983E-03                    1_GWF-(1,26217)  4.51536000E-04                    1_GWF-(1,14800)
        375          8         25 -4.71759884E-03                    1_GWF-(1,11458)  5.70536151E-04                    1_GWF-(1,14801)
        376          8         26 -4.34179850E-03                    1_GWF-(1,11453) -5.25998215E-04                    1_GWF-(1,14801)
        377          8         27  5.72238352E-03                    1_GWF-(1,11453)  5.29026466E-04                    1_GWF-(1,14801)
        378          8         28  5.60705280E-03                    1_GWF-(1,26622)  3.15308038E-04                    1_GWF-(1,14800)
        379          8         29  4.77509531E-03                    1_GWF-(1,26649)  1.91703527E-04                    1_GWF-(1,14799)
        380          8         30 -4.01424813E-03                    1_GWF-(1,26649)  2.55979321E-04                    1_GWF-(1,14801)
        381          8         31 -4.82719679E-03                    1_GWF-(1,26622)  3.55168968E-04                    1_GWF-(1,14800)
        382          8         32 -3.63801708E-03                    1_GWF-(1,26623)  3.98963808E-04                    1_GWF-(1,14801)
        383          8         33  3.65049477E-03                    1_GWF-(1,11453)  2.87355775E-04                    1_GWF-(1,14800)
        384          8         34 -2.70724329E-03                    1_GWF-(1,11460)  3.18186260E-04                    1_GWF-(1,14801)
        385          8         35 -3.04835576E-03                    1_GWF-(1,26350)  2.25846807E-04                    1_GWF-(1,14800)
        386          8         36 -4.10905645E-03                    1_GWF-(1,26422)  3.11395471E-04                    1_GWF-(1,14799)
        387          8         37 -4.19780475E-03                    1_GWF-(1,26350)  1.95904086E-04                    1_GWF-(1,14798)
        388          8         38 -4.45812247E-03                    1_GWF-(1,26422)  2.58036430E-04                    1_GWF-(1,14799)
        389          8         39 -3.85115370E-03                    1_GWF-(1,26350)  2.30187819E-04                    1_GWF-(1,10966)
        390          8         40 -2.74895430E-03                    1_GWF-(1,26422)  2.10560759E-04                    1_GWF-(1,14800)
        391          8         41  3.79116621E-03                    1_GWF-(1,11438)  3.14764090E-04                    1_GWF-(1,14801)
        392          8         42  2.08838016E-03                    1_GWF-(1,11451)  2.84928947E-04                    1_GWF-(1,14800)
        393          8         43  2.38642123E-03                    1_GWF-(1,26421)  3.54544717E-04                    1_GWF-(1,14801)
        394          8         44  3.52812537E-03                    1_GWF-(1,11438)  3.58410540E-04                    1_GWF-(1,14800)
        395          8         45  2.49829856E-03                    1_GWF-(1,26421)  3.64414558E-04                    1_GWF-(1,14801)
        396          8         46  2.25401982E-03                    1_GWF-(1,26420)  2.68091622E-04                    1_GWF-(1,14800)
        397          8         47 -4.29267488E-03                    1_GWF-(1,11458)  3.90274217E-04                    1_GWF-(1,14801)
        398          8         48  3.55671160E-03                    1_GWF-(1,11458)  3.42361704E-04                    1_GWF-(1,14800)
        399          8         49  1.77500841E-03                    1_GWF-(1,26587)  3.34374691E-04                    1_GWF-(1,14801)
        400          8         50 -4.01788849E-03                    1_GWF-(1,11458)  3.07495267E-04                    1_GWF-(1,14800)
        401          9          1  3.79220491E-03                    1_GWF-(1,11458)  3.56461078E-04                    1_GWF-(1,14801)
        402          9          2 -1.76559606E-03                    1_GWF-(1,26587)  3.33893778E-04                    1_GWF-(1,14800)
        403          9          3 -3.04870073E-03                    1_GWF-(1,11458)  3.76076245E-04                    1_GWF-(1,14801)
        404          9          4  3.66236548E-03                    1_GWF-(1,11458)  2.74262540E-04                    1_GWF-(1,14800)
        405          9          5 -2.33481358E-03                    1_GWF-(1,11369)  3.34277924E-04                    1_GWF-(1,14801)
        406          9          6  2.62135006E-03                    1_GWF-(1,11369)  3.11222031E-04                    1_GWF-(1,14800)
        407          9          7 -2.75194265E-03                    1_GWF-(1,26350)  3.15204263E-04                    1_GWF-(1,14801)
        408          9          8 -2.20786589E-03                    1_GWF-(1,26422)  2.33213674E-04                    1_GWF-(1,14800)
        409          9          9  3.03146849E-03                    1_GWF-(1,11369)  2.37009653E-04                    1_GWF-(1,14801)
        410          9         10 -2.43387361E-03                    1_GWF-(1,11415)  1.59444845E-04                    1_GWF-(1,14800)
        411          9         11  2.02526447E-03                    1_GWF-(1,26422)  1.53296003E-04                    1_GWF-(1,10966)
        412          9         12  2.69820605E-03                    1_GWF-(1,26350)  1.78723917E-04                    1_GWF-(1,14799)
        413          9         13  2.80053572E-03                    1_GWF-(1,26422)  1.70784528E-04                    1_GWF-(1,10966)
        414          9         14 -2.23434359E-03                    1_GWF-(1,26622)  1.42871192E-04                    1_GWF-(1,14799)
        415          9         15 -2.54574129E-03                    1_GWF-(1,26649)  8.53535402E-05                    1_GWF-(1,14800)
        416          9         16 -1.75874090E-03                    1_GWF-(1,26622)  1.24042792E-04                    1_GWF-(1,10966)
        417          9         17  1.72004438E-03                    1_GWF-(1,11453)  1.85298684E-04                    1_GWF-(1,14799)
        418          9         18  2.10362962E-03                    1_GWF-(1,11369) -1.52870205E-04                    1_GWF-(1,14799)
        419          9         19 -1.94191443E-03                    1_GWF-(1,26422)  1.91324435E-04                    1_GWF-(1,14799)
        420          9         20 -2.48994508E-03                    1_GWF-(1,11439)  1.58291394E-04                    1_GWF-(1,14800)
        421          9         21 -2.66896584E-03                    1_GWF-(1,11453)  1.97345310E-04                    1_GWF-(1,14801)
        422          9         22 -2.12537100E-03                    1_GWF-(1,26420)  1.60479809E-04                    1_GWF-(1,14800)
        423          9         23 -2.47562665E-03                    1_GWF-(1,26622)  1.04177426E-04                    1_GWF-(1,14801)
        424          9         24 -2.67171204E-03                    1_GWF-(1,26649)  1.23399328E-04                    1_GWF-(1,14799)
        425          9         25 -2.25566324E-03                    1_GWF-(1,26544) -1.39679718E-04                    1_GWF-(1,14801)
        426          9         26 -2.24427388E-03                    1_GWF-(1,26486)  2.10067214E-04                    1_GWF-(1,14801)
        427          9         27 -1.88141930E-03                    1_GWF-(1,11453)  1.92249328E-04                    1_GWF-(1,14800)
        428          9         28 -1.86425934E-03                    1_GWF-(1,11458)  2.02143552E-04                    1_GWF-(1,14801)
        429          9         29  1.64238239E-03                    1_GWF-(1,11458) -1.70737451E-04                    1_GWF-(1,10966)
        430          9         30  1.78164520E-03                    1_GWF-(1,26589)  1.12500577E-04                    1_GWF-(1,14801)
        431          9         31  2.33441152E-03                    1_GWF-(1,26588)  8.27541584E-05                    1_GWF-(1,14799)
        432          9         32  1.83368709E-03                    1_GWF-(1,26543)  8.65584023E-05                    1_GWF-(1,14800)
        433          9         33  1.33996447E-03                    1_GWF-(1,26588)  1.54533567E-04                    1_GWF-(1,14801)
        434          9         34 -1.63010667E-03                    1_GWF-(1,11458) -1.66464002E-04                    1_GWF-(1,10966)
        435          9         35  1.97435262E-03                    1_GWF-(1,11458)  1.52015338E-04                    1_GWF-(1,14801)
        436          9         36  1.36246303E-03                    1_GWF-(1,26422)  1.52046015E-04                    1_GWF-(1,14799)
        437          9         37 -1.61187889E-03                    1_GWF-(1,11458) -1.48335919E-04                    1_GWF-(1,14799)
        438          9         38 -1.21740903E-03                    1_GWF-(1,11459)  1.98465720E-04                    1_GWF-(1,14799)
        439          9         39  1.25350164E-03                    1_GWF-(1,11417) -1.59958204E-04                    1_GWF-(1,14799)
        440          9         40 -1.56717073E-03                    1_GWF-(1,26665)  1.29668397E-04                    1_GWF-(1,14799)
        441          9         41 -1.79433224E-03                    1_GWF-(1,26666) -6.63634891E-05                    1_GWF-(1,10966)
        442          9         42 -1.49442467E-03                    1_GWF-(1,26665)  7.12115614E-05                    1_GWF-(1,10966)
        443          9         43  1.09239721E-03                    1_GWF-(1,11454)  1.32285015E-04                    1_GWF-(1,14799)
        444          9         44  1.40882644E-03                    1_GWF-(1,11482) -1.52938219E-04                    1_GWF-(1,14799)
        445          9         45  1.04077838E-03                    1_GWF-(1,26665)  2.10927204E-04                    1_GWF-(1,14799)
        446          9         46 -1.21683236E-03                    1_GWF-(1,11482) -2.08482871E-04                    1_GWF-(1,14799)
        447          9         47 -1.19467223E-03                    1_GWF-(1,11454)  2.35200155E-04                    1_GWF-(1,14799)
        448          9         48 -1.23811862E-03                    1_GWF-(1,11455) -2.17730723E-04                    1_GWF-(1,14799)
        449          9         49  1.25782566E-03                    1_GWF-(1,11456)  2.31554775E-04                    1_GWF-(1,14799)
        450          9         50  2.86298955E-03                    1_GWF-(1,11455) -2.44286547E-04                    1_GWF-(1,14799)
        451         10          1 -2.76294001E-03                    1_GWF-(1,11455)  2.38629817E-04                    1_GWF-(1,14799)
        452         10          2 -1.50121917E-03                    1_GWF-(1,11456) -2.25819111E-04                    1_GWF-(1,14799)
        453         10          3  1.04935564E-03                    1_GWF-(1,11455)  2.32922239E-04                    1_GWF-(1,14799)
        454         10          4  9.89638305E-04                    1_GWF-(1,11454) -2.04595804E-04                    1_GWF-(1,14799)
        455         10          5  9.22617548E-04                    1_GWF-(1,11458)  2.00728316E-04                    1_GWF-(1,14799)
        456         10          6 -8.03741379E-04                    1_GWF-(1,26665) -1.45459321E-04                    1_GWF-(1,14799)
        457         10          7 -9.65547835E-04                    1_GWF-(1,11482)  1.17152862E-04                    1_GWF-(1,14799)
        458         10          8 -9.25413048E-04                    1_GWF-(1,11438)  4.61050239E-05                    1_GWF-(1,14798)
        459         10          9  1.07281518E-03                    1_GWF-(1,26665) -4.22251486E-05                    1_GWF-(1,10966)
        460         10         10  1.25428861E-03                    1_GWF-(1,26666)  9.11636735E-05                    1_GWF-(1,14799)
        461         10         11  1.09724170E-03                    1_GWF-(1,26665) -1.09102345E-04                    1_GWF-(1,14799)
        462         10         12  8.00351112E-04                    1_GWF-(1,26543)  1.13448318E-04                    1_GWF-(1,14799)
[...]
        688         14         38  1.11736078E-05                    1_GWF-(1,26649)  8.40909075E-07                    1_GWF-(1,14799)
        689         14         39 -9.79709883E-06                    1_GWF-(1,26350)  5.90296353E-07                    1_GWF-(1,14801)
        690         14         40 -8.01396854E-06                    1_GWF-(1,26622)  7.56612771E-07                    1_GWF-(1,14800)
        691         14         41  9.79234393E-06                    1_GWF-(1,12192)  1.08992618E-06                    1_GWF-(1,14801)
        692         14         42  9.61536144E-06                    1_GWF-(1,12000)  1.14324539E-06                    1_GWF-(1,14800)
        693         14         43  9.22207561E-06                    1_GWF-(1,26486)  1.30096879E-06                    1_GWF-(1,14801)
        694         14         44  1.16713644E-05                    1_GWF-(1,26487)  7.13603766E-07                    1_GWF-(1,14800)
        695         14         45  1.34996480E-05                    1_GWF-(1,26486)  2.76730090E-07                    1_GWF-(1,14799)
        696         14         46  1.33622915E-05                    1_GWF-(1,26487)  8.58432245E-07                    1_GWF-(1,14801)
        697         14         47 -1.09610446E-05                    1_GWF-(1,11956)  1.08652311E-06                    1_GWF-(1,14800)
        698         14         48 -1.22986667E-05                    1_GWF-(1,11946)  1.33583779E-06                    1_GWF-(1,14801)
        699         14         49  1.09024420E-05                    1_GWF-(1,11956)  1.23751896E-06                    1_GWF-(1,14800)
        700         14         50  2.24698042E-05                    1_GWF-(1,11937)  1.68186585E-06                    1_GWF-(1,14801)
        701         15          1 -1.89527645E-05                    1_GWF-(1,11946) -1.87624541E-06                    1_GWF-(1,14801)
        702         15          2 -1.33811335E-05                    1_GWF-(1,11954)  1.59848273E-06                    1_GWF-(1,14801)
        703         15          3  1.22128773E-05                    1_GWF-(1,11937)  1.11303594E-06                    1_GWF-(1,14800)
        704         15          4  1.02040310E-05                    1_GWF-(1,11956)  1.04562029E-06                    1_GWF-(1,14801)
        705         15          5 -9.62127170E-06                    1_GWF-(1,26487)  3.37298256E-07                    1_GWF-(1,14800)
        706         15          6 -1.04998402E-05                    1_GWF-(1,26486)  5.11440536E-07                    1_GWF-(1,14800)
        707         15          7 -9.25467815E-06                    1_GWF-(1,26487)  1.31523902E-06                    1_GWF-(1,14801)
        708         15          8  8.72608532E-06                    1_GWF-(1,12190)  1.14361043E-06                    1_GWF-(1,14800)
        709         15          9  7.20528229E-06                    1_GWF-(1,11937)  9.48982650E-07                    1_GWF-(1,14801)
        710         15         10 -1.02356965E-05                    1_GWF-(1,12187)  5.36235966E-07                    1_GWF-(1,14800)
        711         15         11  7.20113034E-06                    1_GWF-(1,26486)  2.97681743E-07                    1_GWF-(1,14798)
        712         15         12  8.54518519E-06                    1_GWF-(1,26487)  5.74642789E-07                    1_GWF-(1,14799)
        713         15         13  8.28652494E-06                    1_GWF-(1,26420)  5.56952113E-07                    1_GWF-(1,14800)
        714         15         14  8.00674360E-06                    1_GWF-(1,26422)  6.06968477E-07                    1_GWF-(1,14801)
        715         15         15  8.48376158E-06                    1_GWF-(1,26350)  3.81974674E-07                    1_GWF-(1,14800)
        716         15         16  7.69435592E-06                    1_GWF-(1,26422)  3.42057401E-07                    1_GWF-(1,14798)
        717         15         17  7.00025843E-06                    1_GWF-(1,26543)  4.97972423E-07                    1_GWF-(1,14799)
        718         15         18  8.70258643E-06                    1_GWF-(1,26588)  3.62720113E-07                    1_GWF-(1,14800)
        719         15         19  6.70641981E-06                    1_GWF-(1,26589)  3.70422843E-07                    1_GWF-(1,14801)
        720         15         20 -7.10769962E-06                    1_GWF-(1,26422)  5.65830864E-07                    1_GWF-(1,14799)
        721         15         21 -8.34329954E-06                    1_GWF-(1,26350) -5.54867054E-07                    1_GWF-(1,14799)
        722         15         22 -1.03788367E-05                    1_GWF-(1,26422)  9.18471184E-07                    1_GWF-(1,14799)
        723         15         23 -9.70766824E-06                    1_GWF-(1,26350) -7.43596077E-07                    1_GWF-(1,14799)
        724         15         24 -7.85636386E-06                    1_GWF-(1,26622)  7.49653204E-07                    1_GWF-(1,14799)
        725         15         25 -6.74969930E-06                    1_GWF-(1,26623)  4.73186063E-07                    1_GWF-(1,14800)
        726         15         26 -7.26890938E-06                    1_GWF-(1,26665)  3.80855892E-07                    1_GWF-(1,14801)
        727         15         27 -5.71680779E-06                    1_GWF-(1,26666)  4.00455703E-07                    1_GWF-(1,14799)
        728         15         28  5.11565978E-06                    1_GWF-(1,26422) -4.47927147E-07                    1_GWF-(1,14799)
        729         15         29  5.49131480E-06                    1_GWF-(1,26665)  6.54437509E-07                    1_GWF-(1,14799)
        730         15         30  4.71283993E-06                    1_GWF-(1,26623) -4.63394219E-07                    1_GWF-(1,14799)
        731         15         31  5.17727211E-06                    1_GWF-(1,26544)  4.97605205E-07                    1_GWF-(1,14801)
        732         15         32  5.18547461E-06                    1_GWF-(1,26486)  4.44435972E-07                    1_GWF-(1,14800)
        733         15         33  4.87855509E-06                    1_GWF-(1,26544)  5.19821253E-07                    1_GWF-(1,14801)
        734         15         34  4.72258065E-06                    1_GWF-(1,26486)  4.31475873E-07                    1_GWF-(1,14800)
        735         15         35  4.99226294E-06                    1_GWF-(1,26217)  4.12866904E-07                    1_GWF-(1,14801)
        736         15         36  5.28034315E-06                    1_GWF-(1,26218)  4.17936922E-07                    1_GWF-(1,14799)
        737         15         37  5.89663576E-06                    1_GWF-(1,26487)  1.68895064E-07                    1_GWF-(1,14798)
        738         15         38  5.50243448E-06                    1_GWF-(1,26420)  3.54658171E-07                    1_GWF-(1,14801)
        739         15         39 -3.61921241E-06                    1_GWF-(1,26589)  4.33693561E-07                    1_GWF-(1,14800)
        740         15         40 -4.25950257E-06                    1_GWF-(1,26218)  5.17566941E-07                    1_GWF-(1,14801)
        741         15         41 -4.30113096E-06                    1_GWF-(1,26217)  7.10913538E-07                    1_GWF-(1,14799)
        742         15         42 -4.19073028E-06                    1_GWF-(1,26218) -6.04166634E-07                    1_GWF-(1,14799)
        743         15         43  3.34807318E-06                    1_GWF-(1,26623)  6.12920933E-07                    1_GWF-(1,14799)
        744         15         44  4.58163203E-06                    1_GWF-(1,26622) -2.31483139E-07                    1_GWF-(1,14799)
        745         15         45  5.28267535E-06                    1_GWF-(1,26649)  1.90145901E-07                    1_GWF-(1,14801)
        746         15         46  3.36038841E-06                    1_GWF-(1,26622)  5.50162411E-07                    1_GWF-(1,14799)
        747         15         47  2.83121962E-06                    1_GWF-(1,26420) -6.82108361E-07                    1_GWF-(1,14799)
        748         15         48 -2.79717787E-06                    1_GWF-(1,26152)  8.78912698E-07                    1_GWF-(1,14799)
        749         15         49  2.52614667E-06                    1_GWF-(1,26218) -7.22971440E-07                    1_GWF-(1,14799)
        750         15         50  1.51588823E-06                    1_GWF-(1,11458)  5.87407786E-07                    1_GWF-(1,14799)
        751         16          1 -1.66529054E-06                    1_GWF-(1,26217) -8.51627403E-07                    1_GWF-(1,14799)
        752         16          2 -3.05585801E-06                    1_GWF-(1,26218)  9.63575704E-07                    1_GWF-(1,14799)
        753         16          3 -3.01915760E-06                    1_GWF-(1,26422) -6.64616617E-07                    1_GWF-(1,14799)
        754         16          4 -2.65277710E-06                    1_GWF-(1,26420)  4.56627244E-07                    1_GWF-(1,14799)
        755         16          5 -2.56499208E-06                    1_GWF-(1,26487)  7.64307267E-08                    1_GWF-(1,14801)
        756         16          6  2.59261453E-06                    1_GWF-(1,26487) -3.71273786E-07                    1_GWF-(1,14799)
        757         16          7  2.97451034E-06                    1_GWF-(1,26420)  6.66521134E-07                    1_GWF-(1,14799)
        758         16          8  3.20749355E-06                    1_GWF-(1,26487) -5.25277391E-07                    1_GWF-(1,14799)
        759         16          9  2.75590527E-06                    1_GWF-(1,26420)  3.86397923E-07                    1_GWF-(1,14799)
        760         16         10  3.34809319E-06                    1_GWF-(1,26666)  1.26681041E-07                    1_GWF-(1,14801)
        761         16         11  4.42640005E-06                    1_GWF-(1,26665) -2.55314893E-07                    1_GWF-(1,14799)
        762         16         12 -3.48294380E-06                    1_GWF-(1,26665)  4.67994294E-07                    1_GWF-(1,14799)
        763         16         13  2.51936286E-06                    1_GWF-(1,26649) -3.88039623E-07                    1_GWF-(1,14799)
        764         16         14  2.32653984E-06                    1_GWF-(1,26622)  3.26327457E-07                    1_GWF-(1,14799)
        765         16         15 -2.47959357E-06                    1_GWF-(1,26218)  1.47665700E-07                    1_GWF-(1,14801)
        766         16         16 -2.54955387E-06                    1_GWF-(1,26487)  9.79685312E-08                    1_GWF-(1,14798)
        767         16         17 -2.79488257E-06                    1_GWF-(1,26622)  2.84864079E-07                    1_GWF-(1,14799)
        768         16         18 -2.60031060E-06                    1_GWF-(1,26487) -2.03073714E-07                    1_GWF-(1,14799)
        769         16         19 -2.50905526E-06                    1_GWF-(1,26543)  1.58997350E-07                    1_GWF-(1,14799)
        770         16         20 -3.64438794E-06                    1_GWF-(1,26588)  1.29075858E-07                    1_GWF-(1,14801)
        771         16         21 -3.65521095E-06                    1_GWF-(1,26543)  1.23739933E-07                    1_GWF-(1,14798)
        772         16         22 -3.16184234E-06                    1_GWF-(1,26588)  2.29454394E-07                    1_GWF-(1,14799)
        773         16         23  1.88830925E-06                    1_GWF-(1,26588)  1.75494354E-07                    1_GWF-(1,14801)
        774         16         24 -1.70679051E-06                    1_GWF-(1,26217)  2.03899614E-07                    1_GWF-(1,14800)
        775         16         25 -2.06566283E-06                    1_GWF-(1,26218)  2.58047542E-07                    1_GWF-(1,14801)
        776         16         26  1.78553508E-06                    1_GWF-(1,26543)  2.34842226E-07                    1_GWF-(1,14800)
        777         16         27  1.81174197E-06                    1_GWF-(1,26586)  2.54441153E-07                    1_GWF-(1,14801)
        778         16         28  2.02691641E-06                    1_GWF-(1,26218)  1.93555097E-07                    1_GWF-(1,14800)
        779         16         29  1.76404691E-06                    1_GWF-(1,26420)  2.01521771E-07                    1_GWF-(1,14801)
        780         16         30  1.87359546E-06                    1_GWF-(1,26421)  1.40885827E-07                    1_GWF-(1,14800)
        781         16         31  1.64672424E-06                    1_GWF-(1,26420)  1.97164016E-07                    1_GWF-(1,14799)
        782         16         32 -1.66176015E-06                    1_GWF-(1,26589)  9.20718880E-08                    1_GWF-(1,14798)
        783         16         33 -1.80949875E-06                    1_GWF-(1,26588)  5.90016843E-08                    1_GWF-(1,14800)
        784         16         34 -1.90712651E-06                    1_GWF-(1,26486)  1.28758649E-07                    1_GWF-(1,14799)
        785         16         35 -1.66263390E-06                    1_GWF-(1,26487)  1.19857231E-07                    1_GWF-(1,14798)
        786         16         36 -2.03172689E-06                    1_GWF-(1,26422)  1.86364345E-07                    1_GWF-(1,14799)
        787         16         37 -2.06901119E-06                    1_GWF-(1,26350)  1.12387557E-07                    1_GWF-(1,14798)
        788         16         38 -1.70197699E-06                    1_GWF-(1,26422)  1.27131216E-07                    1_GWF-(1,14799)
        789         16         39 -1.24929487E-06                    1_GWF-(1,12189)  8.93923256E-08                    1_GWF-(1,14801)
        790         16         40 -1.52798301E-06                    1_GWF-(1,26588)  8.28710129E-08                    1_GWF-(1,14800)
        791         16         41 -1.53140650E-06                    1_GWF-(1,26543)  1.10124145E-07                    1_GWF-(1,14799)
        792         16         42 -1.42597316E-06                    1_GWF-(1,26588)  7.70270571E-08                    1_GWF-(1,14798)
        793         16         43 -1.36307599E-06                    1_GWF-(1,12190)  7.64778492E-08                    1_GWF-(1,14799)
        794         16         44  1.21218424E-06                    1_GWF-(1,26486)  9.87222241E-08                    1_GWF-(1,14801)
        795         16         45  1.45895331E-06                    1_GWF-(1,26487)  9.03702069E-08                    1_GWF-(1,14800)
        796         16         46  1.57973415E-06                    1_GWF-(1,26486)  7.88290858E-08                    1_GWF-(1,14799)
        797         16         47  1.56238652E-06                    1_GWF-(1,26487)  4.57904889E-08                    1_GWF-(1,14798)
        798         16         48 -1.37643330E-06                    1_GWF-(1,11943)  7.30230568E-08                    1_GWF-(1,14800)
        799         16         49  1.12267763E-06                    1_GWF-(1,11956)  1.05491518E-07                    1_GWF-(1,14801)
        800         16         50  2.17997035E-06                    1_GWF-(1,11946)  1.06195707E-07                    1_GWF-(1,14800)
        801         17          1 -1.51478732E-06                    1_GWF-(1,11946)  1.83266415E-07                    1_GWF-(1,14801)
        802         17          2 -1.22402486E-06                    1_GWF-(1,11954)  7.80636850E-08                    1_GWF-(1,14800)
        803         17          3  9.59193582E-07                    1_GWF-(1,11946)  4.72017937E-08                    1_GWF-(1,14800)
        804         18          1 -6.98360958E-07                    1_GWF-(1,26665)  4.45875525E-08                    1_GWF-(1,14799)
 --------------------------------------------------------------------------------------------------------------------------------------


 UBDSV1 SAVING     FLOW-JA-FACE ON UNIT   1020 AT TIME STEP      1, STRESS PERIOD      1
 UBDSV06 SAVING       DATA-SPDIS IN MODEL ML               PACKAGE NPF             CONNECTED TO MODEL ML               PACKAGE NPF              ON UNIT   1020 AT TIME STEP      1, STRESS PERIOD      1
 UBDSV06 SAVING              WEL IN MODEL ML               PACKAGE ML              CONNECTED TO MODEL ML               PACKAGE WEL_0            ON UNIT   1020 AT TIME STEP      1, STRESS PERIOD      1
 UBDSV06 SAVING              DRN IN MODEL ML               PACKAGE ML              CONNECTED TO MODEL ML               PACKAGE DRN_0            ON UNIT   1020 AT TIME STEP      1, STRESS PERIOD      1
 UBDSV06 SAVING              RIV IN MODEL ML               PACKAGE ML              CONNECTED TO MODEL ML               PACKAGE RIV_0            ON UNIT   1020 AT TIME STEP      1, STRESS PERIOD      1
 UBDSV06 SAVING              GHB IN MODEL ML               PACKAGE ML              CONNECTED TO MODEL ML               PACKAGE GHB_0            ON UNIT   1020 AT TIME STEP      1, STRESS PERIOD      1
 UBDSV06 SAVING              RCH IN MODEL ML               PACKAGE ML              CONNECTED TO MODEL ML               PACKAGE RCHA_0           ON UNIT   1020 AT TIME STEP      1, STRESS PERIOD      1

 HEAD WILL BE SAVED ON UNIT 1021 AT END OF TIME STEP    1, STRESS PERIOD    1


  VOLUME BUDGET FOR ENTIRE MODEL AT END OF TIME STEP    1, STRESS PERIOD   1
  ---------------------------------------------------------------------------------------------------

     CUMULATIVE VOLUME      L**3       RATES FOR THIS TIME STEP      L**3/T          PACKAGE NAME    
     ------------------                 ------------------------                     ----------------

           IN:                                      IN:
           ---                                      ---
                 WEL =           0.0000                   WEL =           0.0000     WEL_0           
                 DRN =           0.0000                   DRN =           0.0000     DRN_0           
                 RIV =           3.2865                   RIV =           1.0955     RIV_0           
                 GHB =           4.3919                   GHB =           1.4640     GHB_0           
                 RCH =           2.4791                   RCH =           0.8264     RCHA_0          

            TOTAL IN =          10.1575              TOTAL IN =           3.3858

          OUT:                                     OUT:
          ----                                     ----
                 WEL =           0.4370                   WEL =           0.1457     WEL_0           
                 DRN =           0.5515                   DRN =           0.1838     DRN_0           
                 RIV =           8.7424                   RIV =           2.9141     RIV_0           
                 GHB =           0.4266                   GHB =           0.1422     GHB_0           
                 RCH =           0.0000                   RCH =           0.0000     RCHA_0          

           TOTAL OUT =          10.1575             TOTAL OUT =           3.3858

            IN - OUT =      -4.3536E-06              IN - OUT =      -1.4512E-06

 PERCENT DISCREPANCY =          -0.00     PERCENT DISCREPANCY =          -0.00




         TIME SUMMARY AT END OF TIME STEP    1 IN STRESS PERIOD    1
                    SECONDS     MINUTES      HOURS       DAYS        YEARS
                    -----------------------------------------------------------
   TIME STEP LENGTH  3.0000     5.00000E-02 8.33333E-04 3.47222E-05 9.50643E-08
 STRESS PERIOD TIME  3.0000     5.00000E-02 8.33333E-04 3.47222E-05 9.50643E-08
         TOTAL TIME  3.0000     5.00000E-02 8.33333E-04 3.47222E-05 9.50643E-08


end timestep

