                                   MODFLOW 6
                U.S. GEOLOGICAL SURVEY MODULAR HYDROLOGIC MODEL
                            VERSION 6.2.2 07/30/2021

   MODFLOW 6 compiled Jul 31 2021 14:22:53 with IFORT compiler (ver. 19.10.3)

This software has been approved for release by the U.S. Geological 
Survey (USGS). Although the software has been subjected to rigorous 
review, the USGS reserves the right to update the software as needed 
pursuant to further analysis and review. No warranty, expressed or 
implied, is made by the USGS or the U.S. Government as to the 
functionality of the software and related material nor shall the 
fact of release constitute any such warranty. Furthermore, the 
software is released on condition that neither the USGS nor the U.S. 
Government shall be held liable for any damages resulting from its 
authorized or unauthorized use. Also refer to the USGS Water 
Resources Software User Rights Notice for complete use, copyright, 
and distribution information.


System command used to initiate simulation:
mf6

MODFLOW was compiled using uniform precision.

Real Variables
  KIND: 8
  TINY (smallest non-zero value):    2.225074-308
  HUGE (largest value):    1.797693+308
  PRECISION: 15
  BIT SIZE: 64

Integer Variables
  KIND: 4
  HUGE (largest value): 2147483647
  BIT SIZE: 32

Long Integer Variables
  KIND: 8
  HUGE (largest value): 9223372036854775807
  BIT SIZE: 64

Logical Variables
  KIND: 4
  BIT SIZE: 32
 

 OPENED mfsim.nam
 FILE TYPE:NAM   UNIT 1001   STATUS:OLD                 
 FORMAT:FORMATTED              ACCESS:SEQUENTIAL          
 ACTION:READ                

 # File generated by Flopy version 3.3.5 on 06/01/2022 at 18:12:25.

 READING SIMULATION OPTIONS
 END OF SIMULATION OPTIONS

 READING SIMULATION TIMING

 OPENED mfsim.tdis
 FILE TYPE:TDIS   UNIT 1002   STATUS:OLD                 
 FORMAT:FORMATTED              ACCESS:SEQUENTIAL          
 ACTION:READ                


 TDIS -- TEMPORAL DISCRETIZATION PACKAGE,
 VERSION 1 : 11/13/2014 - INPUT READ FROM UNIT 1002
 # File generated by Flopy version 3.3.5 on 06/01/2022 at 18:12:25.
 PROCESSING TDIS OPTIONS
    SIMULATION TIME UNIT IS SECONDS
 END OF TDIS OPTIONS
 PROCESSING TDIS DIMENSIONS
    1 STRESS PERIOD(S) IN SIMULATION
 END OF TDIS DIMENSIONS
 PROCESSING TDIS PERIODDATA


 STRESS PERIOD     LENGTH       TIME STEPS     MULTIPLIER FOR DELT
 ----------------------------------------------------------------------------
        1         9.000000          1                    1.000
 END OF TDIS PERIODDATA
 END OF SIMULATION TIMING

 READING SIMULATION MODELS
    GWF6 model ML will be created as model 1
 END OF SIMULATION MODELS

 READING SIMULATION EXCHANGES
 END OF SIMULATION EXCHANGES

 READING SOLUTIONGROUP

 Creating solution: SLN_1           

 OPENED mfsim.ims
 FILE TYPE:IMS   UNIT 1015   STATUS:OLD                 
 FORMAT:FORMATTED              ACCESS:SEQUENTIAL          
 ACTION:READ                

 END OF SIMULATION SOLUTIONGROUP

 IMS -- ITERATIVE MODEL SOLUTION PACKAGE, VERSION 6, 4/28/2017
         INPUT READ FROM UNIT 1015
 # File generated by Flopy version 3.3.5 on 06/01/2022 at 18:12:25.

 PROCESSING IMS OPTIONS
 END OF IMS OPTIONS

 PROCESSING IMS NONLINEAR
 END OF IMS NONLINEAR DATA
 ***UNDER-RELAXATION WILL NOT BE USED***
 
 ***IMS LINEAR SOLVER WILL BE USED***

 IMSLINEAR -- UNSTRUCTURED LINEAR SOLUTION PACKAGE, VERSION 8, 04/28/2017

 PROCESSING LINEAR DATA
 END OF LINEAR DATA
 
 OUTER ITERATION CONVERGENCE CRITERION    (DVCLOSE) =    0.100000E-04
 MAXIMUM NUMBER OF OUTER ITERATIONS        (MXITER) = 100
 SOLVER PRINTOUT INDEX                     (IPRIMS) = 2
 NONLINEAR ITERATION METHOD            (NONLINMETH) = 0
 LINEAR SOLUTION METHOD                   (LINMETH) = 1

       SOLUTION BY THE        CONJUGATE-GRADIENT       METHOD
 ------------------------------------------------------------------
 MAXIMUM OF 100 CALLS OF SOLUTION ROUTINE
 MAXIMUM OF 50 INTERNAL ITERATIONS PER CALL TO SOLUTION ROUTINE
 LINEAR ACCELERATION METHOD            = CG        
 MATRIX PRECONDITIONING TYPE           = INCOMPLETE LU       
 MATRIX SCALING APPROACH               = NO SCALING          
 MATRIX REORDERING APPROACH            = ORIGINAL ORDERING        
 NUMBER OF ORTHOGONALIZATIONS          = 0
 HEAD CHANGE CRITERION FOR CLOSURE     =    0.10000E-05
 RESIDUAL CHANGE CRITERION FOR CLOSURE =    0.10000E-04
 RESIDUAL CONVERGENCE OPTION           = 1
 RESIDUAL CONVERGENCE NORM             = INFINITY NORM S 
 RELAXATION FACTOR                     =    0.00000E+00



 
    Solving:  Stress period:     1    Time step:     1
 
1
                            STRESS PERIOD NO. 1, LENGTH =   9.000000    
                            -----------------------------------------------
                            NUMBER OF TIME STEPS = 1
                            MULTIPLIER FOR DELT =     1.000
                            INITIAL TIME STEP SIZE =   9.000000    

 SLN_1 OUTER ITERATION SUMMARY
 ----------------------------------------------------------------------------------------------------------
                                OUTER      INNER                    STEP   MAXIMUM CHANGE MODEL-(CELLID) OR
 OUTER ITERATION STEP       ITERATION  ITERATION  MAXIMUM CHANGE SUCCESS             MODEL-PACKAGE-(NUMBER)
 ----------------------------------------------------------------------------------------------------------
 Model                              1         50       168.50558                            1_GWF-(1,26519)
 Model                              2         50      -163.58808                            1_GWF-(1,26519)
 Model                              3         50       2.2217980                            1_GWF-(1,21762)
 Model                              4         50      -1.3209618                            1_GWF-(1,24899)
 Model                              5         50      0.30580135                            1_GWF-(1,25180)
 Model                              6         50     -0.16915637                            1_GWF-(1,21761)
 Model                              7         50     -0.10903625                            1_GWF-(1,11431)
 Model                              8         50 -2.25104201E-02                            1_GWF-(1,21762)
 Model                              9         50 -7.44340388E-03                            1_GWF-(1,11425)
 Model                             10         50 -2.97075006E-03                            1_GWF-(1,24905)
 Model                             11         50 -1.14322992E-03                            1_GWF-(1,11435)
 Model                             12         50 -3.96304373E-04                            1_GWF-(1,24911)
 Model                             13         50 -1.33660052E-04                            1_GWF-(1,11425)
 Model                             14         50 -5.80897421E-05                             1_GWF-(1,2961)
 Model                             15         50 -1.92075007E-05                            1_GWF-(1,26589)
 Model                             16         50 -8.75368676E-06                              1_GWF-(1,898)
 Model                             17          2 -1.40284134E-06                            1_GWF-(1,11425)
 Model                             18          1  8.86855489E-07       *                    1_GWF-(1,26665)
 ----------------------------------------------------------------------------------------------------------


 18 CALLS TO NUMERICAL SOLUTION IN TIME STEP 1 STRESS PERIOD 1
 803 TOTAL ITERATIONS

 SLN_1 INNER ITERATION SUMMARY
 --------------------------------------------------------------------------------------------------------------------------------------
      TOTAL      OUTER      INNER                                                            MAXIMUM                                   
  ITERATION  ITERATION  ITERATION  MAXIMUM CHANGE      MAXIMUM CHANGE MODEL-(CELLID)        RESIDUAL    MAXIMUM RESIDUAL MODEL-(CELLID)
 --------------------------------------------------------------------------------------------------------------------------------------
          1          1          1       22.569787                    1_GWF-(1,26517)      0.20934038                    1_GWF-(1,11179)
          2          1          2       38.574913                    1_GWF-(1,26516)     -0.32042586                    1_GWF-(1,11179)
          3          1          3       49.926646                    1_GWF-(1,26515)     -0.25398842                    1_GWF-(1,11161)
          4          1          4       30.269377                    1_GWF-(1,26513)      0.21036710                    1_GWF-(1,11208)
          5          1          5       25.411147                    1_GWF-(1,26647)      0.17817401                    1_GWF-(1,11202)
          6          1          6       29.807637                    1_GWF-(1,26649)     -0.19278766                    1_GWF-(1,11207)
          7          1          7       23.264524                    1_GWF-(1,26622)      0.18875117                    1_GWF-(1,10966)
          8          1          8       17.915473                    1_GWF-(1,26623)      0.16479492                    1_GWF-(1,10960)
          9          1          9       13.897014                    1_GWF-(1,26543)  8.45303039E-02                    1_GWF-(1,10960)
         10          1         10       13.431540                    1_GWF-(1,26486)  8.73568130E-02                    1_GWF-(1,10967)
         11          1         11       10.027751                    1_GWF-(1,26487)      0.12012858                    1_GWF-(1,10966)
         12          1         12       7.0033762                    1_GWF-(1,26350)      0.10036755                    1_GWF-(1,10960)
         13          1         13       6.0619286                    1_GWF-(1,26422)  6.81490678E-02                    1_GWF-(1,10960)
         14          1         14       4.1465513                    1_GWF-(1,26350)  6.51791597E-02                    1_GWF-(1,10966)
         15          1         15       2.7974479                    1_GWF-(1,26218)  9.06265950E-02                    1_GWF-(1,10966)
         16          1         16      -2.6461557                    1_GWF-(1,26622)  7.40202432E-02                    1_GWF-(1,10960)
         17          1         17      -3.4219441                    1_GWF-(1,26623)  5.11795508E-02                    1_GWF-(1,11206)
         18          1         18      -4.3324684                    1_GWF-(1,26543)  6.03455393E-02                    1_GWF-(1,10967)
         19          1         19      -5.7965730                    1_GWF-(1,26588)  7.00450272E-02                    1_GWF-(1,10966)
         20          1         20      -4.5444698                    1_GWF-(1,26543)  4.86043017E-02                    1_GWF-(1,10960)
         21          1         21      -4.1396797                    1_GWF-(1,26487) -4.40997180E-02                    1_GWF-(1,11194)
         22          1         22      -4.4274863                    1_GWF-(1,26486)  4.27777754E-02                    1_GWF-(1,10966)
         23          1         23      -4.0372086                    1_GWF-(1,26487)  3.54490523E-02                    1_GWF-(1,10960)
         24          1         24       4.0115128                    1_GWF-(1,11577)  3.25490127E-02                    1_GWF-(1,14799)
         25          1         25       3.6074658                    1_GWF-(1,26420)  3.24082682E-02                    1_GWF-(1,14799)
         26          1         26       3.9567885                    1_GWF-(1,26487) -4.04578841E-02                    1_GWF-(1,11206)
         27          1         27       3.7887895                    1_GWF-(1,26420)  4.16369161E-02                    1_GWF-(1,11206)
         28          1         28       2.7320578                    1_GWF-(1,26543)  4.11340460E-02                    1_GWF-(1,14799)
         29          1         29       2.3021191                    1_GWF-(1,11706)  3.57568789E-02                    1_GWF-(1,14798)
         30          1         30       2.1141297                    1_GWF-(1,26422)  3.07931930E-02                    1_GWF-(1,14799)
         31          1         31      -2.3455431                    1_GWF-(1,11621) -4.20197151E-02                    1_GWF-(1,11206)
         32          1         32       2.7065942                    1_GWF-(1,26422)  4.14130005E-02                    1_GWF-(1,14799)
         33          1         33      -2.6875767                    1_GWF-(1,26422)  3.62951817E-02                    1_GWF-(1,14799)
         34          1         34      -2.6874491                    1_GWF-(1,26350)  3.51158578E-02                    1_GWF-(1,14799)
         35          1         35      -2.6020566                    1_GWF-(1,26422)  2.91160226E-02                    1_GWF-(1,14799)
         36          1         36      -2.0425337                    1_GWF-(1,26544)  3.23205966E-02                    1_GWF-(1,14799)
         37          1         37      -1.5588143                    1_GWF-(1,26486)  3.34636512E-02                    1_GWF-(1,14799)
         38          1         38      -1.7052777                    1_GWF-(1,11621) -2.62359230E-02                    1_GWF-(1,10960)
         39          1         39      -1.5062789                    1_GWF-(1,26649)  3.41677094E-02                    1_GWF-(1,14799)
         40          1         40       1.9068790                    1_GWF-(1,11621) -4.25521817E-02                    1_GWF-(1,11206)
         41          1         41      -1.1398734                    1_GWF-(1,11486)  4.22418885E-02                    1_GWF-(1,11206)
         42          1         42      -1.6282762                    1_GWF-(1,11619) -4.74855338E-02                    1_GWF-(1,11206)
         43          1         43       1.3384476                    1_GWF-(1,26350)  4.36884355E-02                    1_GWF-(1,11206)
         44          1         44       1.3076786                    1_GWF-(1,26217) -4.74510113E-02                    1_GWF-(1,11206)
         45          1         45      -1.4890416                    1_GWF-(1,11622)  4.51690595E-02                    1_GWF-(1,11206)
         46          1         46      0.91388744                    1_GWF-(1,11384)  5.04826672E-02                    1_GWF-(1,14801)
         47          1         47      -1.2667469                    1_GWF-(1,26217)  7.75670983E-02                    1_GWF-(1,14799)
         48          1         48      -1.3636112                    1_GWF-(1,26218) -6.68194866E-02                    1_GWF-(1,14799)
         49          1         49      -1.5384339                    1_GWF-(1,26217)      0.10842934                    1_GWF-(1,14799)
         50          1         50      -1.6776863                    1_GWF-(1,26218)      0.13092144                    1_GWF-(1,14801)
         51          2          1      -167.04954                    1_GWF-(1,26519)     -0.24145857                    1_GWF-(1,26458)
         52          2          2      -63.570419                    1_GWF-(1,26513)  5.81320657E-02                    1_GWF-(1,26458)
         53          2          3      -38.566633                    1_GWF-(1,26637)  7.65057235E-02                    1_GWF-(1,14799)
         54          2          4      -35.335106                    1_GWF-(1,26665)  6.26033659E-02                    1_GWF-(1,14801)
         55          2          5      -23.388404                    1_GWF-(1,26622)  9.44303892E-02                    1_GWF-(1,14799)
         56          2          6      -19.488134                    1_GWF-(1,26588)  8.64220108E-02                    1_GWF-(1,14801)
         57          2          7      -18.615828                    1_GWF-(1,26543)      0.13875550                    1_GWF-(1,14799)
         58          2          8      -13.417013                    1_GWF-(1,26486)     -0.13746682                    1_GWF-(1,14799)
         59          2          9      -9.8572619                    1_GWF-(1,26487)      0.13574607                    1_GWF-(1,14799)
         60          2         10      -7.3389145                    1_GWF-(1,26421)  5.83748553E-02                    1_GWF-(1,14801)
         61          2         11      -7.2414078                    1_GWF-(1,26350)  2.66169024E-02                    1_GWF-(1,14801)
         62          2         12      -4.3882732                    1_GWF-(1,26217)  5.92851823E-02                    1_GWF-(1,14799)
         63          2         13      -2.5471268                    1_GWF-(1,26622)  6.47555370E-02                    1_GWF-(1,14801)
         64          2         14      -1.8492402                    1_GWF-(1,26623)  5.37641501E-02                    1_GWF-(1,14799)
         65          2         15      -1.7851926                    1_GWF-(1,26622)  2.17522707E-02                    1_GWF-(1,14801)
         66          2         16      -1.6646468                    1_GWF-(1,25728)  5.59902905E-02                    1_GWF-(1,14801)
         67          2         17       2.1830165                    1_GWF-(1,26350)      0.11453838                    1_GWF-(1,14799)
         68          2         18       1.9897339                    1_GWF-(1,26422)  9.79941335E-02                    1_GWF-(1,14801)
         69          2         19       2.1101437                    1_GWF-(1,26588)  8.94594442E-02                    1_GWF-(1,14799)
         70          2         20       1.9437013                    1_GWF-(1,26543)  1.55892223E-02                    1_GWF-(1,14801)
         71          2         21       2.1024322                    1_GWF-(1,26588)  8.77021365E-02                    1_GWF-(1,14801)
         72          2         22       2.4526550                    1_GWF-(1,26543)      0.15657306                    1_GWF-(1,14799)
         73          2         23       1.9017149                    1_GWF-(1,26544)      0.17046237                    1_GWF-(1,14801)
         74          2         24      -2.8795912                    1_GWF-(1,26487)      0.13516780                    1_GWF-(1,14799)
         75          2         25      -3.4864876                    1_GWF-(1,26486)  2.11509453E-02                    1_GWF-(1,14799)
         76          2         26      -3.7202901                    1_GWF-(1,26487)      0.15208715                    1_GWF-(1,14801)
         77          2         27      -2.5874958                    1_GWF-(1,26420)      0.27620522                    1_GWF-(1,14799)
         78          2         28       1.8036084                    1_GWF-(1,26217)      0.22910267                    1_GWF-(1,14801)
         79          2         29      -1.5770671                    1_GWF-(1,26327)      0.24162180                    1_GWF-(1,14799)
         80          2         30       1.5610389                    1_GWF-(1,26420)      0.19695202                    1_GWF-(1,14801)
         81          2         31      -1.1984318                    1_GWF-(1,26674)      0.18658924                    1_GWF-(1,14799)
         82          2         32      -1.1088649                    1_GWF-(1,26422)      0.15395104                    1_GWF-(1,14801)
         83          2         33      -1.1473792                    1_GWF-(1,26350)      0.12429724                    1_GWF-(1,14800)
         84          2         34      0.95845680                    1_GWF-(1,26350)      0.11032221                    1_GWF-(1,14801)
         85          2         35       1.3658781                    1_GWF-(1,26422)  7.84725067E-02                    1_GWF-(1,14800)
         86          2         36      0.93544294                    1_GWF-(1,26218)  5.56929707E-02                    1_GWF-(1,14801)
         87          2         37     -0.74317338                    1_GWF-(1,26350)  3.26008512E-02                    1_GWF-(1,14800)
         88          2         38      0.73846040                    1_GWF-(1,26350)  5.34044076E-02                    1_GWF-(1,14799)
         89          2         39      0.92215397                    1_GWF-(1,26422)  6.57244158E-02                    1_GWF-(1,14798)
         90          2         40     -0.97138386                    1_GWF-(1,26486)      0.13353051                    1_GWF-(1,14799)
         91          2         41      -1.0276856                    1_GWF-(1,26420)     -0.13780835                    1_GWF-(1,14799)
         92          2         42     -0.90984865                    1_GWF-(1,26421)      0.18451048                    1_GWF-(1,14799)
         93          2         43     -0.98607428                    1_GWF-(1,26350)      0.15187470                    1_GWF-(1,14801)
         94          2         44     -0.75642986                    1_GWF-(1,26218)      0.15605350                    1_GWF-(1,14799)
         95          2         45      -1.0444154                    1_GWF-(1,26420)      0.12252560                    1_GWF-(1,14801)
         96          2         46     -0.70148508                    1_GWF-(1,26486)  9.07974806E-02                    1_GWF-(1,14800)
         97          2         47     -0.69610450                    1_GWF-(1,26663)  8.97031154E-02                    1_GWF-(1,14801)
         98          2         48     -0.58907537                    1_GWF-(1,26623)  6.93754511E-02                    1_GWF-(1,14800)
         99          2         49     -0.65758719                    1_GWF-(1,22783)  7.77074043E-02                    1_GWF-(1,14801)
        100          2         50     -0.53627830                    1_GWF-(1,26604)  7.24001733E-02                    1_GWF-(1,14800)
        101          3          1     -0.49683224                    1_GWF-(1,11437)  3.03134782E-02                    1_GWF-(1,14801)
        102          3          2      0.55616785                    1_GWF-(1,22783)  9.63811450E-02                    1_GWF-(1,14800)
        103          3          3      0.53649979                    1_GWF-(1,26623)      0.12157602                    1_GWF-(1,14801)
        104          3          4      0.57805137                    1_GWF-(1,26649)  7.58740135E-02                    1_GWF-(1,14800)
        105          3          5     -0.57821726                    1_GWF-(1,11438)      0.12152548                    1_GWF-(1,14801)
        106          3          6      0.61080869                    1_GWF-(1,11438)     -0.14390112                    1_GWF-(1,14801)
        107          3          7     -0.52266510                    1_GWF-(1,26350)      0.13193286                    1_GWF-(1,14801)
        108          3          8     -0.64552589                    1_GWF-(1,26421)      0.10982944                    1_GWF-(1,14800)
        109          3          9      0.80214123                    1_GWF-(1,11438)      0.13401817                    1_GWF-(1,14801)
        110          3         10      0.64289472                    1_GWF-(1,26350)  8.77444494E-02                    1_GWF-(1,14800)
        111          3         11      0.50021336                    1_GWF-(1,26486)  6.19585933E-02                    1_GWF-(1,14801)
        112          3         12      0.71569363                    1_GWF-(1,11438)  3.50827612E-02                    1_GWF-(1,14800)
        113          3         13     -0.46674160                    1_GWF-(1,11438)  3.72730956E-02                    1_GWF-(1,10966)
        114          3         14      0.43825432                    1_GWF-(1,26350)  4.28396065E-02                    1_GWF-(1,14799)
        115          3         15     -0.54110272                    1_GWF-(1,26350)  4.49565895E-02                    1_GWF-(1,10966)
        116          3         16     -0.56443819                    1_GWF-(1,26422)  6.90918158E-02                    1_GWF-(1,14799)
        117          3         17      0.45541103                    1_GWF-(1,26422)  5.02037082E-02                    1_GWF-(1,14800)
        118          3         18      0.47724299                    1_GWF-(1,26350)  6.84139271E-02                    1_GWF-(1,14801)
        119          3         19     -0.67448046                    1_GWF-(1,11438)  7.75366750E-02                    1_GWF-(1,14800)
        120          3         20      0.47761619                    1_GWF-(1,26659)  8.60667590E-02                    1_GWF-(1,14801)
        121          3         21     -0.50283099                    1_GWF-(1,26420)  7.91604590E-02                    1_GWF-(1,14800)
        122          3         22     -0.80424001                    1_GWF-(1,11438)  9.87521341E-02                    1_GWF-(1,14801)
        123          3         23     -0.65705279                    1_GWF-(1,11458)  8.76151185E-02                    1_GWF-(1,14800)
        124          3         24     -0.45959452                    1_GWF-(1,26421)  7.37291910E-02                    1_GWF-(1,14801)
        125          3         25      0.75373921                    1_GWF-(1,26487) -4.94586804E-02                    1_GWF-(1,10966)
        126          3         26      0.91512042                    1_GWF-(1,26420)  2.11119762E-02                    1_GWF-(1,14798)
        127          3         27      0.82422977                    1_GWF-(1,26487)  3.68389134E-02                    1_GWF-(1,14801)
        128          3         28      0.57876759                    1_GWF-(1,26486)  4.76751063E-02                    1_GWF-(1,14800)
        129          3         29     -0.65022258                    1_GWF-(1,26486)  5.35014969E-02                    1_GWF-(1,14801)
        130          3         30     -0.61531518                    1_GWF-(1,26544)  3.60247901E-02                    1_GWF-(1,14799)
        131          3         31      0.57183439                    1_GWF-(1,26588) -2.58084320E-02                    1_GWF-(1,14799)
        132          3         32      0.66423332                    1_GWF-(1,26543)  2.46774622E-02                    1_GWF-(1,14801)
        133          3         33     -0.62464379                    1_GWF-(1,26543) -4.35909484E-02                    1_GWF-(1,10966)
        134          3         34     -0.60896292                    1_GWF-(1,26588)  4.73140885E-02                    1_GWF-(1,10966)
        135          3         35      0.55044183                    1_GWF-(1,26588)  4.82762938E-02                    1_GWF-(1,14799)
        136          3         36      0.44177944                    1_GWF-(1,26665) -3.46474256E-02                    1_GWF-(1,14799)
        137          3         37      0.49415956                    1_GWF-(1,26623)  2.40267643E-02                    1_GWF-(1,14799)
        138          3         38      0.66268690                    1_GWF-(1,26622) -2.18499785E-02                    1_GWF-(1,10966)
        139          3         39      0.51064003                    1_GWF-(1,26649) -3.36855958E-02                    1_GWF-(1,14799)
        140          3         40     -0.48153934                    1_GWF-(1,26649)  4.90316614E-02                    1_GWF-(1,14799)
        141          3         41     -0.46234453                    1_GWF-(1,26648) -3.55498037E-02                    1_GWF-(1,14799)
        142          3         42     -0.63159133                    1_GWF-(1,26665)  1.62222120E-02                    1_GWF-(1,10966)
        143          3         43     -0.59772022                    1_GWF-(1,26666) -3.07911997E-02                    1_GWF-(1,10966)
        144          3         44     -0.46682518                    1_GWF-(1,26665) -3.84500093E-02                    1_GWF-(1,14799)
        145          3         45      0.59155409                    1_GWF-(1,26665)  6.10488258E-02                    1_GWF-(1,14799)
        146          3         46      0.50211716                    1_GWF-(1,26666) -6.02401681E-02                    1_GWF-(1,14799)
        147          3         47      0.38550350                    1_GWF-(1,11453)  7.69289535E-02                    1_GWF-(1,14799)
        148          3         48     -0.31288764                    1_GWF-(1,26154) -6.37631601E-02                    1_GWF-(1,14799)
        149          3         49     -0.33983324                    1_GWF-(1,26649)  9.36541498E-02                    1_GWF-(1,14799)
        150          3         50      0.44471541                    1_GWF-(1,11453) -7.42952229E-02                    1_GWF-(1,14799)
        151          4          1      -1.1025290                    1_GWF-(1,16215)  2.40264218E-02                    1_GWF-(1,14799)
        152          4          2     -0.81977971                    1_GWF-(1,16130) -7.02394963E-02                    1_GWF-(1,14799)
        153          4          3      0.36849245                    1_GWF-(1,16130)      0.10591278                    1_GWF-(1,14799)
        154          4          4      0.50140101                    1_GWF-(1,16125) -7.82354673E-02                    1_GWF-(1,14799)
        155          4          5     -0.43033246                    1_GWF-(1,16211)  7.28919241E-02                    1_GWF-(1,14799)
        156          4          6      0.49249355                    1_GWF-(1,16130) -5.78452135E-02                    1_GWF-(1,14799)
        157          4          7      0.37046853                    1_GWF-(1,16126)  4.75519797E-02                    1_GWF-(1,14799)
        158          4          8     -0.32138484                    1_GWF-(1,26665) -2.26209112E-02                    1_GWF-(1,14799)
        159          4          9      0.33911796                    1_GWF-(1,26665)  8.11472248E-03                    1_GWF-(1,14800)
        160          4         10      0.34601057                    1_GWF-(1,26666)  2.56041952E-02                    1_GWF-(1,14799)
        161          4         11      0.36013535                    1_GWF-(1,26665) -3.34137187E-02                    1_GWF-(1,14799)
        162          4         12     -0.25034727                    1_GWF-(1,26649)  3.27745233E-02                    1_GWF-(1,14799)
        163          4         13      0.28516057                    1_GWF-(1,26649)  1.33732604E-02                    1_GWF-(1,14801)
        164          4         14      0.32309778                    1_GWF-(1,26622) -6.46201960E-03                    1_GWF-(1,10966)
        165          4         15      0.26765752                    1_GWF-(1,26623)  2.59287732E-02                    1_GWF-(1,14799)
        166          4         16     -0.26970692                    1_GWF-(1,26623) -3.12358907E-02                    1_GWF-(1,14799)
        167          4         17     -0.24228569                    1_GWF-(1,26622)  2.78954160E-02                    1_GWF-(1,14799)
        168          4         18      0.30222027                    1_GWF-(1,11659)  1.60943624E-02                    1_GWF-(1,14801)
        169          4         19     -0.32302421                    1_GWF-(1,26543)  1.14594859E-02                    1_GWF-(1,14800)
        170          4         20     -0.40436252                    1_GWF-(1,26588)  1.61936641E-02                    1_GWF-(1,14799)
        171          4         21     -0.34114777                    1_GWF-(1,26543) -1.75523385E-02                    1_GWF-(1,14799)
        172          4         22     -0.18512988                    1_GWF-(1,26588)  1.82853307E-02                    1_GWF-(1,14799)
        173          4         23      0.18753020                    1_GWF-(1,26487)  1.70638042E-02                    1_GWF-(1,14801)
        174          4         24      0.25036227                    1_GWF-(1,26486)  1.29886275E-02                    1_GWF-(1,14800)
        175          4         25      0.28615718                    1_GWF-(1,26487)  1.13981782E-02                    1_GWF-(1,14799)
        176          4         26      0.26623249                    1_GWF-(1,26486)  1.17172375E-02                    1_GWF-(1,14798)
        177          4         27      0.24915393                    1_GWF-(1,26487)  1.74472092E-02                    1_GWF-(1,14800)
        178          4         28      0.17702940                    1_GWF-(1,26420)  2.42153077E-02                    1_GWF-(1,14801)
        179          4         29      0.20197334                    1_GWF-(1,26218)  2.40825128E-02                    1_GWF-(1,14800)
        180          4         30      0.14174517                    1_GWF-(1,26217)  2.50846704E-02                    1_GWF-(1,14801)
        181          4         31      0.12675473                    1_GWF-(1,26486) -2.30489478E-02                    1_GWF-(1,14801)
        182          4         32      0.11651610                    1_GWF-(1,11572)  2.38995161E-02                    1_GWF-(1,14801)
        183          4         33     -0.11092428                    1_GWF-(1,26544)  1.92956932E-02                    1_GWF-(1,14800)
        184          4         34     -0.15751549                    1_GWF-(1,26486)  2.04569866E-02                    1_GWF-(1,14801)
        185          4         35     -0.15802775                    1_GWF-(1,26350)  1.27650114E-02                    1_GWF-(1,14800)
        186          4         36     -0.19582077                    1_GWF-(1,26422)  1.43242271E-02                    1_GWF-(1,14799)
        187          4         37     -0.16418304                    1_GWF-(1,26350)  7.80058679E-03                    1_GWF-(1,14798)
        188          4         38     -0.14403978                    1_GWF-(1,26422)  1.04610860E-02                    1_GWF-(1,14799)
        189          4         39     -0.13131752                    1_GWF-(1,26350)  6.17688038E-03                    1_GWF-(1,10966)
        190          4         40     -0.11627022                    1_GWF-(1,26422)  7.72478662E-03                    1_GWF-(1,14800)
        191          4         41     -0.10293931                    1_GWF-(1,26350)  1.32276594E-02                    1_GWF-(1,14801)
        192          4         42  9.04771707E-02                    1_GWF-(1,26350)  1.53086778E-02                    1_GWF-(1,14800)
        193          4         43      0.12366101                    1_GWF-(1,26422)  1.92327441E-02                    1_GWF-(1,14801)
        194          4         44      0.14383088                    1_GWF-(1,26350)  1.84979359E-02                    1_GWF-(1,14800)
        195          4         45      0.13551904                    1_GWF-(1,26422)  2.19784933E-02                    1_GWF-(1,14801)
        196          4         46  9.78638607E-02                    1_GWF-(1,26420)  1.95378956E-02                    1_GWF-(1,14800)
        197          4         47  9.58213450E-02                    1_GWF-(1,11572)  2.09835842E-02                    1_GWF-(1,14801)
        198          4         48  7.53899803E-02                    1_GWF-(1,26589)  1.49049444E-02                    1_GWF-(1,14800)
        199          4         49 -6.99182545E-02                    1_GWF-(1,26420)  1.61248638E-02                    1_GWF-(1,14801)
        200          4         50 -7.86244265E-02                    1_GWF-(1,11662)  1.29665699E-02                    1_GWF-(1,14800)
        201          5          1     -0.18489199                    1_GWF-(1,11431)  5.05444975E-03                    1_GWF-(1,14801)
        202          5          2     -0.15222373                    1_GWF-(1,11436)  1.80339131E-02                    1_GWF-(1,14800)
        203          5          3      0.10691109                    1_GWF-(1,11436)  2.10259470E-02                    1_GWF-(1,14801)
        204          5          4      0.16285993                    1_GWF-(1,11434)  1.19653780E-02                    1_GWF-(1,14800)
        205          5          5     -0.29034354                    1_GWF-(1,11436)  1.72522161E-02                    1_GWF-(1,14801)
        206          5          6      0.25540647                    1_GWF-(1,11436) -1.85640142E-02                    1_GWF-(1,14801)
        207          5          7      0.15659062                    1_GWF-(1,11435)  1.57384071E-02                    1_GWF-(1,14801)
        208          5          8     -0.26863979                    1_GWF-(1,11436)  1.26679276E-02                    1_GWF-(1,14800)
        209          5          9      0.29946552                    1_GWF-(1,11436)  1.33720243E-02                    1_GWF-(1,14801)
        210          5         10      0.15330163                    1_GWF-(1,11435)  8.43951046E-03                    1_GWF-(1,14800)
        211          5         11     -0.18977840                    1_GWF-(1,11435)  5.75737682E-03                    1_GWF-(1,14801)
        212          5         12      0.23761185                    1_GWF-(1,11436)  6.38915682E-03                    1_GWF-(1,14799)
        213          5         13      0.14175988                    1_GWF-(1,11416)  5.47000349E-03                    1_GWF-(1,10966)
        214          5         14     -0.16183474                    1_GWF-(1,11435)  8.28846311E-03                    1_GWF-(1,14799)
        215          5         15     -0.17577095                    1_GWF-(1,11416) -6.69049581E-03                    1_GWF-(1,14799)
        216          5         16      0.18939706                    1_GWF-(1,11416)  1.03128976E-02                    1_GWF-(1,14799)
        217          5         17      0.14780647                    1_GWF-(1,11415)  8.46029109E-03                    1_GWF-(1,14800)
        218          5         18     -0.16359691                    1_GWF-(1,11416)  1.08708378E-02                    1_GWF-(1,14801)
        219          5         19      0.24569825                    1_GWF-(1,11416)  1.03245101E-02                    1_GWF-(1,14800)
        220          5         20      0.15962905                    1_GWF-(1,11415)  1.21763636E-02                    1_GWF-(1,14801)
        221          5         21     -0.18236417                    1_GWF-(1,11415)  1.10164502E-02                    1_GWF-(1,14800)
        222          5         22      0.18915496                    1_GWF-(1,11416)  1.11313421E-02                    1_GWF-(1,14801)
        223          5         23     -0.12401969                    1_GWF-(1,11416)  6.54187307E-03                    1_GWF-(1,14800)
        224          5         24     -0.13760437                    1_GWF-(1,11415)  3.37823291E-03                    1_GWF-(1,14798)
        225          5         25      0.13848934                    1_GWF-(1,11416)  7.52229754E-03                    1_GWF-(1,14801)
        226          5         26      0.12723199                    1_GWF-(1,11415)  7.96205283E-03                    1_GWF-(1,14800)
        227          5         27      0.10371136                    1_GWF-(1,11452)  8.22258462E-03                    1_GWF-(1,14801)
        228          5         28     -0.14246621                    1_GWF-(1,11452)  6.29704708E-03                    1_GWF-(1,14799)
        229          5         29  8.76360094E-02                    1_GWF-(1,11415) -4.97458411E-03                    1_GWF-(1,14799)
        230          5         30  8.04874904E-02                    1_GWF-(1,11452)  4.82590035E-03                    1_GWF-(1,14799)
        231          5         31     -0.11428711                    1_GWF-(1,11452)  3.88851208E-03                    1_GWF-(1,14800)
        232          5         32  8.30280124E-02                    1_GWF-(1,11415)  5.73373945E-03                    1_GWF-(1,14801)
        233          5         33  9.60377754E-02                    1_GWF-(1,11452)  6.51041742E-03                    1_GWF-(1,14799)
        234          5         34     -0.12229317                    1_GWF-(1,11452) -7.55139254E-03                    1_GWF-(1,14799)
        235          5         35 -8.14156538E-02                    1_GWF-(1,11369)  8.19236338E-03                    1_GWF-(1,14799)
        236          5         36  8.18579897E-02                    1_GWF-(1,11452) -4.48506979E-03                    1_GWF-(1,14799)
        237          5         37 -8.93737518E-02                    1_GWF-(1,11452)  2.34258556E-03                    1_GWF-(1,14801)
        238          5         38 -6.78132380E-02                    1_GWF-(1,11369)  4.01148671E-03                    1_GWF-(1,14799)
        239          5         39  8.37985018E-02                    1_GWF-(1,11452) -5.98514544E-03                    1_GWF-(1,14799)
        240          5         40 -7.22639995E-02                    1_GWF-(1,11452)  7.88414695E-03                    1_GWF-(1,14799)
        241          5         41 -7.06173774E-02                    1_GWF-(1,26487) -4.16420641E-03                    1_GWF-(1,14799)
        242          5         42 -7.35391857E-02                    1_GWF-(1,26665)  2.67132245E-03                    1_GWF-(1,10966)
        243          5         43 -5.22836960E-02                    1_GWF-(1,26666)  5.19324146E-03                    1_GWF-(1,14799)
        244          5         44  5.07908254E-02                    1_GWF-(1,11416) -7.06056891E-03                    1_GWF-(1,14799)
        245          5         45  7.65985189E-02                    1_GWF-(1,11452)  9.95149674E-03                    1_GWF-(1,14799)
        246          5         46 -5.23427660E-02                    1_GWF-(1,11453) -1.04984960E-02                    1_GWF-(1,14799)
        247          5         47  5.87642255E-02                    1_GWF-(1,11453)  1.30603763E-02                    1_GWF-(1,14799)
        248          5         48 -4.76418850E-02                    1_GWF-(1,11416) -1.11006930E-02                    1_GWF-(1,14799)
        249          5         49  7.43181836E-02                    1_GWF-(1,16130)  8.68414722E-03                    1_GWF-(1,14799)
        250          5         50  9.44797744E-02                    1_GWF-(1,11453) -1.08451464E-02                    1_GWF-(1,14799)
        251          6          1  9.94046802E-02                    1_GWF-(1,11431)  4.13193317E-03                    1_GWF-(1,14799)
        252          6          2  6.20580977E-02                    1_GWF-(1,11438) -1.19428455E-02                    1_GWF-(1,14799)
        253          6          3 -4.50468163E-02                    1_GWF-(1,11438)  1.38825092E-02                    1_GWF-(1,14799)
        254          6          4  4.92955377E-02                    1_GWF-(1,16114) -8.71563521E-03                    1_GWF-(1,14799)
        255          6          5  6.36438097E-02                    1_GWF-(1,11438)  9.65831250E-03                    1_GWF-(1,14799)
        256          6          6 -6.48115200E-02                    1_GWF-(1,11438) -8.46337798E-03                    1_GWF-(1,14799)
        257          6          7 -5.06619823E-02                    1_GWF-(1,11437)  5.87835820E-03                    1_GWF-(1,14799)
        258          6          8 -4.64188932E-02                    1_GWF-(1,26665)  1.82843362E-03                    1_GWF-(1,14801)
        259          6          9  4.98127223E-02                    1_GWF-(1,26665)  1.71303550E-03                    1_GWF-(1,14798)
        260          6         10  5.37834442E-02                    1_GWF-(1,26487)  5.17397873E-03                    1_GWF-(1,14799)
        261          6         11 -6.83590645E-02                    1_GWF-(1,11416) -5.26193710E-03                    1_GWF-(1,14799)
        262          6         12  4.78891731E-02                    1_GWF-(1,11458)  4.37781756E-03                    1_GWF-(1,14799)
        263          6         13  5.35007177E-02                    1_GWF-(1,11438)  1.73171481E-03                    1_GWF-(1,14801)
        264          6         14 -6.78309603E-02                    1_GWF-(1,11416) -1.77431946E-03                    1_GWF-(1,14799)
        265          6         15  4.61903083E-02                    1_GWF-(1,11458)  4.19521927E-03                    1_GWF-(1,14799)
        266          6         16  4.61129796E-02                    1_GWF-(1,11438) -4.18650780E-03                    1_GWF-(1,14799)
        267          6         17 -6.50658466E-02                    1_GWF-(1,11416)  3.80617831E-03                    1_GWF-(1,14799)
        268          6         18  5.11224033E-02                    1_GWF-(1,11458)  2.54336393E-03                    1_GWF-(1,14801)
        269          6         19 -4.28730995E-02                    1_GWF-(1,11458)  2.06447152E-03                    1_GWF-(1,14800)
        270          6         20 -5.02586264E-02                    1_GWF-(1,11416)  1.44630752E-03                    1_GWF-(1,14799)
        271          6         21 -4.16746935E-02                    1_GWF-(1,26543) -2.17603825E-03                    1_GWF-(1,14799)
        272          6         22 -3.88723811E-02                    1_GWF-(1,11452)  2.66412498E-03                    1_GWF-(1,14799)
        273          6         23  4.33109273E-02                    1_GWF-(1,11452)  2.79411801E-03                    1_GWF-(1,14801)
        274          6         24  3.45122399E-02                    1_GWF-(1,11458)  2.87292767E-03                    1_GWF-(1,14800)
        275          6         25  3.48233573E-02                    1_GWF-(1,11435)  3.04256394E-03                    1_GWF-(1,14801)
        276          6         26  3.55926012E-02                    1_GWF-(1,26588)  1.43273106E-03                    1_GWF-(1,14800)
        277          6         27  4.17903164E-02                    1_GWF-(1,26543)  1.67938701E-03                    1_GWF-(1,14799)
        278          6         28  4.45493185E-02                    1_GWF-(1,26588)  2.78823092E-03                    1_GWF-(1,14801)
        279          6         29  2.84347395E-02                    1_GWF-(1,26218)  3.09014283E-03                    1_GWF-(1,14800)
        280          6         30  3.20008989E-02                    1_GWF-(1,11431)  3.40948731E-03                    1_GWF-(1,14801)
        281          6         31  2.96933726E-02                    1_GWF-(1,26486)  2.94023672E-03                    1_GWF-(1,14800)
        282          6         32  2.20601947E-02                    1_GWF-(1,11411)  3.37740255E-03                    1_GWF-(1,14801)
        283          6         33  2.30018347E-02                    1_GWF-(1,11431)  2.47208133E-03                    1_GWF-(1,14800)
        284          6         34 -2.11412152E-02                    1_GWF-(1,11451)  2.53701289E-03                    1_GWF-(1,14801)
        285          6         35 -2.06139259E-02                    1_GWF-(1,26350)  1.86423825E-03                    1_GWF-(1,14800)
        286          6         36 -2.76147468E-02                    1_GWF-(1,26422)  2.21109518E-03                    1_GWF-(1,14799)
        287          6         37 -2.66187113E-02                    1_GWF-(1,26350)  1.24078895E-03                    1_GWF-(1,14798)
        288          6         38 -2.71478964E-02                    1_GWF-(1,26422)  1.55364992E-03                    1_GWF-(1,14799)
        289          6         39 -2.44540547E-02                    1_GWF-(1,26350)  1.15777037E-03                    1_GWF-(1,10966)
        290          6         40  2.21634682E-02                    1_GWF-(1,11435)  1.18202539E-03                    1_GWF-(1,14800)
        291          6         41  1.94598699E-02                    1_GWF-(1,11437)  1.91262028E-03                    1_GWF-(1,14801)
        292          6         42 -1.54838105E-02                    1_GWF-(1,11416)  2.15155419E-03                    1_GWF-(1,14800)
        293          6         43  1.72353130E-02                    1_GWF-(1,26422)  2.62962534E-03                    1_GWF-(1,14801)
        294          6         44  2.36295986E-02                    1_GWF-(1,11437) -2.51843505E-03                    1_GWF-(1,14801)
        295          6         45 -2.58097057E-02                    1_GWF-(1,11416)  2.82788754E-03                    1_GWF-(1,14801)
        296          6         46  1.74872677E-02                    1_GWF-(1,11416)  2.30473994E-03                    1_GWF-(1,14800)
        297          6         47  2.90975333E-02                    1_GWF-(1,11437)  2.66021123E-03                    1_GWF-(1,14801)
        298          6         48 -2.88224941E-02                    1_GWF-(1,11416)  2.26235190E-03                    1_GWF-(1,14800)
        299          6         49  2.12647134E-02                    1_GWF-(1,11416)  2.35518259E-03                    1_GWF-(1,14801)
        300          6         50  2.76576088E-02                    1_GWF-(1,11437)  1.99715644E-03                    1_GWF-(1,14800)
        301          7          1     -0.10903363                    1_GWF-(1,11431)  7.56641344E-04                    1_GWF-(1,14801)
        302          7          2 -6.38335959E-02                    1_GWF-(1,11436)  2.15458719E-03                    1_GWF-(1,14800)
        303          7          3  4.29621391E-02                    1_GWF-(1,11436)  2.77363179E-03                    1_GWF-(1,14801)
        304          7          4  5.95561219E-02                    1_GWF-(1,11435)  2.26891991E-03                    1_GWF-(1,14800)
        305          7          5 -5.23447565E-02                    1_GWF-(1,11436)  2.52913495E-03                    1_GWF-(1,14801)
        306          7          6 -4.04927469E-02                    1_GWF-(1,11413)  1.94840984E-03                    1_GWF-(1,14800)
        307          7          7  5.86949639E-02                    1_GWF-(1,11435)  2.22569250E-03                    1_GWF-(1,14801)
        308          7          8 -3.59147308E-02                    1_GWF-(1,11435)  1.99560712E-03                    1_GWF-(1,14800)
        309          7          9 -5.32198993E-02                    1_GWF-(1,11416)  2.12393484E-03                    1_GWF-(1,14801)
        310          7         10  3.92297154E-02                    1_GWF-(1,11417)  1.48774191E-03                    1_GWF-(1,14800)
        311          7         11  4.11758209E-02                    1_GWF-(1,11416)  1.23619007E-03                    1_GWF-(1,14801)
        312          7         12 -6.54619090E-02                    1_GWF-(1,11416)  7.36011692E-04                    1_GWF-(1,14799)
        313          7         13  3.64793062E-02                    1_GWF-(1,11416)  9.22703694E-04                    1_GWF-(1,10966)
        314          7         14  2.98135417E-02                    1_GWF-(1,11413)  1.24971198E-03                    1_GWF-(1,14799)
        315          7         15 -4.46408641E-02                    1_GWF-(1,11416) -9.61876544E-04                    1_GWF-(1,14799)
        316          7         16  3.62708314E-02                    1_GWF-(1,11416)  1.51025632E-03                    1_GWF-(1,14799)
        317          7         17  2.85334103E-02                    1_GWF-(1,11413)  1.19769879E-03                    1_GWF-(1,14800)
        318          7         18  4.08836311E-02                    1_GWF-(1,11452)  1.42407468E-03                    1_GWF-(1,14801)
        319          7         19 -4.54387914E-02                    1_GWF-(1,11452)  1.22818604E-03                    1_GWF-(1,14800)
        320          7         20 -2.14556493E-02                    1_GWF-(1,11407)  1.52170622E-03                    1_GWF-(1,14801)
        321          7         21 -2.18019773E-02                    1_GWF-(1,11438)  8.84933779E-04                    1_GWF-(1,14800)
        322          7         22 -3.54394123E-02                    1_GWF-(1,11452)  4.74980185E-04                    1_GWF-(1,14798)
        323          7         23 -2.35830925E-02                    1_GWF-(1,26622)  1.44817488E-03                    1_GWF-(1,14801)
        324          7         24  2.76050911E-02                    1_GWF-(1,11452)  1.45815978E-03                    1_GWF-(1,14800)
        325          7         25 -3.38475947E-02                    1_GWF-(1,11452)  1.59437237E-03                    1_GWF-(1,14801)
        326          7         26  1.69781554E-02                    1_GWF-(1,11452)  1.46388720E-03                    1_GWF-(1,14800)
        327          7         27 -2.02612134E-02                    1_GWF-(1,11438)  1.37584936E-03                    1_GWF-(1,14801)
        328          7         28 -1.78937708E-02                    1_GWF-(1,11452)  7.23266179E-04                    1_GWF-(1,14799)
        329          7         29 -1.52626956E-02                    1_GWF-(1,11458)  3.92913547E-04                    1_GWF-(1,14798)
        330          7         30  1.46843416E-02                    1_GWF-(1,26543)  7.89465698E-04                    1_GWF-(1,14801)
        331          7         31  1.74810098E-02                    1_GWF-(1,11409)  9.57442466E-04                    1_GWF-(1,14800)
        332          7         32 -1.78357630E-02                    1_GWF-(1,11458)  1.08254498E-03                    1_GWF-(1,14801)
        333          7         33  1.80272410E-02                    1_GWF-(1,11415)  1.01344090E-03                    1_GWF-(1,14799)
        334          7         34 -1.46309615E-02                    1_GWF-(1,11421) -8.19636943E-04                    1_GWF-(1,14799)
        335          7         35 -2.03730405E-02                    1_GWF-(1,11458)  7.57493694E-04                    1_GWF-(1,14799)
        336          7         36  1.61349768E-02                    1_GWF-(1,11415) -4.28971928E-04                    1_GWF-(1,10966)
        337          7         37  1.24878781E-02                    1_GWF-(1,11423)  7.18701777E-04                    1_GWF-(1,14801)
        338          7         38 -2.15404442E-02                    1_GWF-(1,11458)  1.09345062E-03                    1_GWF-(1,14799)
        339          7         39  1.69152404E-02                    1_GWF-(1,11369) -1.10343774E-03                    1_GWF-(1,14799)
        340          7         40  1.27187565E-02                    1_GWF-(1,11450)  1.15130329E-03                    1_GWF-(1,14799)
        341          7         41 -1.48300785E-02                    1_GWF-(1,11458)  5.71694074E-04                    1_GWF-(1,14798)
        342          7         42  1.37436939E-02                    1_GWF-(1,11369)  4.18397235E-04                    1_GWF-(1,10966)
        343          7         43 -9.62065620E-03                    1_GWF-(1,11414)  5.90211267E-04                    1_GWF-(1,14799)
        344          7         44  1.22693615E-02                    1_GWF-(1,11438) -9.48017914E-04                    1_GWF-(1,14799)
        345          7         45  1.34646093E-02                    1_GWF-(1,11369)  1.35019403E-03                    1_GWF-(1,14799)
        346          7         46  8.94017609E-03                    1_GWF-(1,11450) -1.30949068E-03                    1_GWF-(1,14799)
        347          7         47  1.54884941E-02                    1_GWF-(1,11438)  1.49564389E-03                    1_GWF-(1,14799)
        348          7         48 -1.19864095E-02                    1_GWF-(1,11438) -1.44570174E-03                    1_GWF-(1,14799)
        349          7         49 -9.22459439E-03                    1_GWF-(1,11369)  1.72489895E-03                    1_GWF-(1,14799)
        350          7         50  1.37705940E-02                    1_GWF-(1,11438) -1.71275876E-03                    1_GWF-(1,14799)
        351          8          1 -1.64761658E-02                    1_GWF-(1,11438)  1.97244723E-03                    1_GWF-(1,14799)
        352          8          2  5.91153798E-03                    1_GWF-(1,11438) -1.38313792E-03                    1_GWF-(1,14799)
        353          8          3  9.25017617E-03                    1_GWF-(1,11438)  1.47346141E-03                    1_GWF-(1,14799)
        354          8          4 -1.63620818E-02                    1_GWF-(1,11438) -1.33636530E-03                    1_GWF-(1,14799)
        355          8          5 -1.22436754E-02                    1_GWF-(1,11417)  1.38335247E-03                    1_GWF-(1,14799)
        356          8          6 -9.18595553E-03                    1_GWF-(1,11452) -1.00137594E-03                    1_GWF-(1,14799)
        357          8          7 -9.26758003E-03                    1_GWF-(1,11438)  6.74876483E-04                    1_GWF-(1,14799)
        358          8          8  9.87642625E-03                    1_GWF-(1,11438)  2.80709255E-04                    1_GWF-(1,14801)
        359          8          9  9.54069776E-03                    1_GWF-(1,11417)  3.77154098E-04                    1_GWF-(1,14798)
        360          8         10  8.66430714E-03                    1_GWF-(1,11452)  8.55563259E-04                    1_GWF-(1,14799)
        361          8         11  9.50645803E-03                    1_GWF-(1,11415) -8.84290318E-04                    1_GWF-(1,14799)
        362          8         12  9.75058976E-03                    1_GWF-(1,11417)  8.54200312E-04                    1_GWF-(1,14799)
        363          8         13  1.03474052E-02                    1_GWF-(1,11369)  3.82100539E-04                    1_GWF-(1,14798)
        364          8         14  1.03129635E-02                    1_GWF-(1,11415)  2.54439520E-04                    1_GWF-(1,14800)
        365          8         15 -8.21083064E-03                    1_GWF-(1,11415)  3.81469026E-04                    1_GWF-(1,14799)
        366          8         16  9.02820279E-03                    1_GWF-(1,11369) -4.68964421E-04                    1_GWF-(1,14799)
        367          8         17  9.85961262E-03                    1_GWF-(1,11415)  5.39353258E-04                    1_GWF-(1,14799)
        368          8         18 -8.94865670E-03                    1_GWF-(1,11415)  4.30088485E-04                    1_GWF-(1,14801)
        369          8         19  8.23694034E-03                    1_GWF-(1,11369)  4.18370919E-04                    1_GWF-(1,14800)
        370          8         20 -7.55388910E-03                    1_GWF-(1,11369)  3.26474625E-04                    1_GWF-(1,14801)
        371          8         21 -6.62053835E-03                    1_GWF-(1,11415) -1.68069178E-04                    1_GWF-(1,14799)
        372          8         22  6.60945352E-03                    1_GWF-(1,11369)  3.23507505E-04                    1_GWF-(1,14799)
        373          8         23  6.33234417E-03                    1_GWF-(1,11415)  4.22108359E-04                    1_GWF-(1,14801)
        374          8         24 -8.02552919E-03                    1_GWF-(1,11425) -5.06740124E-04                    1_GWF-(1,14801)
        375          8         25  6.85842188E-03                    1_GWF-(1,11369)  6.00755174E-04                    1_GWF-(1,14801)
        376          8         26 -6.99538021E-03                    1_GWF-(1,11369)  5.04808198E-04                    1_GWF-(1,14800)
        377          8         27 -7.79808532E-03                    1_GWF-(1,11425)  4.49790965E-04                    1_GWF-(1,14801)
        378          8         28  7.20681911E-03                    1_GWF-(1,26622)  1.82340792E-04                    1_GWF-(1,14800)
        379          8         29  5.69143815E-03                    1_GWF-(1,11452)  1.92717365E-04                    1_GWF-(1,14800)
        380          8         30 -5.22930538E-03                    1_GWF-(1,11425)  3.97066378E-04                    1_GWF-(1,14801)
        381          8         31 -5.86900365E-03                    1_GWF-(1,11453) -3.89389809E-04                    1_GWF-(1,14801)
        382          8         32  5.78907843E-03                    1_GWF-(1,11452)  4.42007918E-04                    1_GWF-(1,14801)
        383          8         33  4.91061672E-03                    1_GWF-(1,11451)  3.29426207E-04                    1_GWF-(1,14800)
        384          8         34 -5.73147741E-03                    1_GWF-(1,11453)  3.86424849E-04                    1_GWF-(1,14799)
        385          8         35  5.11213652E-03                    1_GWF-(1,11453) -2.60164763E-04                    1_GWF-(1,14799)
        386          8         36  6.24656135E-03                    1_GWF-(1,11416)  3.23714454E-04                    1_GWF-(1,14799)
        387          8         37 -5.07321020E-03                    1_GWF-(1,11451)  1.78665309E-04                    1_GWF-(1,14798)
        388          8         38  6.32519944E-03                    1_GWF-(1,11453)  1.62169823E-04                    1_GWF-(1,14799)
        389          8         39  6.45128101E-03                    1_GWF-(1,11416)  2.43109488E-04                    1_GWF-(1,14801)
        390          8         40 -5.54513983E-03                    1_GWF-(1,11416)  2.57877141E-04                    1_GWF-(1,14800)
        391          8         41 -6.45373033E-03                    1_GWF-(1,11417)  4.12182067E-04                    1_GWF-(1,14801)
        392          8         42 -6.29432431E-03                    1_GWF-(1,11438)  3.99781325E-04                    1_GWF-(1,14800)
        393          8         43  5.23502570E-03                    1_GWF-(1,11438)  3.99907522E-04                    1_GWF-(1,14801)
        394          8         44 -6.82208810E-03                    1_GWF-(1,11435) -3.76467126E-04                    1_GWF-(1,14801)
        395          8         45 -7.16366867E-03                    1_GWF-(1,11438)  4.48528551E-04                    1_GWF-(1,14801)
        396          8         46  9.56355855E-03                    1_GWF-(1,11438)  3.42211895E-04                    1_GWF-(1,14800)
        397          8         47 -6.57344672E-03                    1_GWF-(1,11435)  4.09631915E-04                    1_GWF-(1,14801)
        398          8         48 -5.69600227E-03                    1_GWF-(1,11438)  3.70294797E-04                    1_GWF-(1,14800)
        399          8         49  8.88251134E-03                    1_GWF-(1,11438)  1.96154135E-04                    1_GWF-(1,14801)
        400          8         50  6.12798497E-03                    1_GWF-(1,11425) -3.40718044E-04                    1_GWF-(1,14801)
        401          9          1 -7.73816196E-03                    1_GWF-(1,11425)  2.17150114E-04                    1_GWF-(1,14801)
        402          9          2 -2.84683001E-03                    1_GWF-(1,11413)  2.81989446E-04                    1_GWF-(1,14800)
        403          9          3  1.84486312E-03                    1_GWF-(1,11425)  3.17840852E-04                    1_GWF-(1,14801)
        404          9          4  3.99976533E-03                    1_GWF-(1,11413)  3.04832199E-04                    1_GWF-(1,14800)
        405          9          5 -2.38566249E-03                    1_GWF-(1,11438)  4.02432319E-04                    1_GWF-(1,14801)
        406          9          6 -2.71326954E-03                    1_GWF-(1,11415) -3.37259203E-04                    1_GWF-(1,14801)
        407          9          7 -2.30995733E-03                    1_GWF-(1,26350)  3.14621651E-04                    1_GWF-(1,14801)
        408          9          8  2.27231054E-03                    1_GWF-(1,11425)  2.91066305E-04                    1_GWF-(1,14800)
        409          9          9 -2.26002733E-03                    1_GWF-(1,11414)  2.94400675E-04                    1_GWF-(1,14801)
        410          9         10  2.20039395E-03                    1_GWF-(1,11415)  2.11940295E-04                    1_GWF-(1,14800)
        411          9         11  2.26155745E-03                    1_GWF-(1,11458)  2.21076572E-04                    1_GWF-(1,14801)
        412          9         12 -2.68607276E-03                    1_GWF-(1,11414) -1.18424339E-04                    1_GWF-(1,10966)
        413          9         13  2.46024054E-03                    1_GWF-(1,26422)  1.25020494E-04                    1_GWF-(1,10966)
        414          9         14 -2.54195018E-03                    1_GWF-(1,26622)  1.30821629E-04                    1_GWF-(1,14801)
        415          9         15 -2.61256638E-03                    1_GWF-(1,26649)  1.31982067E-04                    1_GWF-(1,14800)
        416          9         16  2.22829700E-03                    1_GWF-(1,26422)  1.30122288E-04                    1_GWF-(1,10966)
        417          9         17  1.73522886E-03                    1_GWF-(1,26350) -1.33333865E-04                    1_GWF-(1,10966)
        418          9         18 -2.69842086E-03                    1_GWF-(1,11458)  1.83310319E-04                    1_GWF-(1,10966)
        419          9         19  2.38987638E-03                    1_GWF-(1,11414)  2.01018060E-04                    1_GWF-(1,14799)
        420          9         20 -2.37631011E-03                    1_GWF-(1,26420)  1.26122899E-04                    1_GWF-(1,14800)
        421          9         21 -2.84657653E-03                    1_GWF-(1,26487)  1.73180949E-04                    1_GWF-(1,14801)
        422          9         22 -2.55876601E-03                    1_GWF-(1,26420) -9.95585462E-05                    1_GWF-(1,10966)
        423          9         23  2.42309823E-03                    1_GWF-(1,26486)  1.31422679E-04                    1_GWF-(1,10966)
        424          9         24 -2.59156608E-03                    1_GWF-(1,11458)  1.97341415E-04                    1_GWF-(1,14801)
        425          9         25  2.44112473E-03                    1_GWF-(1,11458)  1.82878690E-04                    1_GWF-(1,14800)
        426          9         26 -2.10823196E-03                    1_GWF-(1,26486)  1.83792284E-04                    1_GWF-(1,14801)
        427          9         27  1.80242807E-03                    1_GWF-(1,11415)  1.91976801E-04                    1_GWF-(1,14800)
        428          9         28  1.76573479E-03                    1_GWF-(1,11458)  1.99800506E-04                    1_GWF-(1,14801)
        429          9         29  1.65977837E-03                    1_GWF-(1,26588) -1.19669156E-04                    1_GWF-(1,10966)
        430          9         30  1.86542470E-03                    1_GWF-(1,26589) -7.53161600E-05                    1_GWF-(1,14799)
        431          9         31  2.33679108E-03                    1_GWF-(1,26588)  1.51675686E-04                    1_GWF-(1,14801)
        432          9         32  1.83096771E-03                    1_GWF-(1,26543) -1.73687138E-04                    1_GWF-(1,14801)
        433          9         33  1.78858964E-03                    1_GWF-(1,11438)  1.98368738E-04                    1_GWF-(1,14801)
        434          9         34 -1.51968447E-03                    1_GWF-(1,11415)  1.87251808E-04                    1_GWF-(1,14800)
        435          9         35 -1.42101543E-03                    1_GWF-(1,11425)  1.98995980E-04                    1_GWF-(1,14801)
        436          9         36  2.15187102E-03                    1_GWF-(1,11438) -1.61697145E-04                    1_GWF-(1,14801)
        437          9         37  1.88728156E-03                    1_GWF-(1,11435)  1.59952329E-04                    1_GWF-(1,14801)
        438          9         38 -1.74214353E-03                    1_GWF-(1,11452)  1.91968627E-04                    1_GWF-(1,14799)
        439          9         39 -1.42098404E-03                    1_GWF-(1,11417) -1.66187557E-04                    1_GWF-(1,14799)
        440          9         40  2.11692703E-03                    1_GWF-(1,11417)  1.69209472E-04                    1_GWF-(1,14799)
        441          9         41 -1.67064261E-03                    1_GWF-(1,26666)  1.18245608E-04                    1_GWF-(1,14798)
        442          9         42 -1.71540569E-03                    1_GWF-(1,26665)  9.49439873E-05                    1_GWF-(1,14799)
        443          9         43 -1.72378046E-03                    1_GWF-(1,11438)  6.75442918E-05                    1_GWF-(1,14800)
        444          9         44  1.78250972E-03                    1_GWF-(1,11438)  7.71010127E-05                    1_GWF-(1,14801)
        445          9         45  1.46735230E-03                    1_GWF-(1,26665)  1.56070585E-04                    1_GWF-(1,14799)
        446          9         46 -1.67539518E-03                    1_GWF-(1,11438) -1.62171520E-04                    1_GWF-(1,14799)
        447          9         47  2.42091300E-03                    1_GWF-(1,11438)  2.09681435E-04                    1_GWF-(1,14799)
        448          9         48 -1.52118206E-03                    1_GWF-(1,11438) -2.11444153E-04                    1_GWF-(1,14799)
        449          9         49 -1.04883007E-03                    1_GWF-(1,11435)  2.80377744E-04                    1_GWF-(1,14799)
        450          9         50  1.88399457E-03                    1_GWF-(1,11438) -2.47763698E-04                    1_GWF-(1,14799)
        451         10          1 -1.87233529E-03                    1_GWF-(1,11438)  3.19506986E-04                    1_GWF-(1,14799)
        452         10          2  9.84366064E-04                    1_GWF-(1,26666) -2.37083816E-04                    1_GWF-(1,14799)
        453         10          3  1.25475021E-03                    1_GWF-(1,11438)  2.25813695E-04                    1_GWF-(1,14799)
        454         10          4 -1.97988550E-03                    1_GWF-(1,11438) -1.73439459E-04                    1_GWF-(1,14799)
        455         10          5  1.44089379E-03                    1_GWF-(1,11438)  1.66795776E-04                    1_GWF-(1,14799)
        456         10          6 -1.14146458E-03                    1_GWF-(1,26665) -1.07194663E-04                    1_GWF-(1,14799)
        457         10          7 -1.10526645E-03                    1_GWF-(1,11438)  4.89824450E-05                    1_GWF-(1,14800)
        458         10          8  1.15086120E-03                    1_GWF-(1,11438)  4.80474757E-05                    1_GWF-(1,14799)
        459         10          9  1.29941057E-03                    1_GWF-(1,26665) -8.78115759E-05                    1_GWF-(1,14799)
        460         10         10  1.21259708E-03                    1_GWF-(1,26666)  1.44731367E-04                    1_GWF-(1,14799)
        461         10         11 -9.66732822E-04                    1_GWF-(1,11417) -1.23352253E-04                    1_GWF-(1,14799)
        462         10         12  9.13233481E-04                    1_GWF-(1,11417)  8.77353196E-05                    1_GWF-(1,14799)
        463         10         13  1.05822600E-03                    1_GWF-(1,11369)  3.51264504E-05                    1_GWF-(1,14801)
        464         10         14  9.83253339E-04                    1_GWF-(1,26622) -8.04699906E-05                    1_GWF-(1,14799)
        465         10         15 -8.58296989E-04                    1_GWF-(1,11369)  1.15465858E-04                    1_GWF-(1,14799)
        466         10         16  1.10522726E-03                    1_GWF-(1,11369) -8.21345909E-05                    1_GWF-(1,14799)
        467         10         17  8.80826076E-04                    1_GWF-(1,11415)  6.95023414E-05                    1_GWF-(1,14799)
        468         10         18 -9.07522836E-04                    1_GWF-(1,11425)  7.02376640E-05                    1_GWF-(1,14801)
        469         10         19  1.00238248E-03                    1_GWF-(1,11369)  8.01924854E-05                    1_GWF-(1,14800)
        470         10         20 -1.01746717E-03                    1_GWF-(1,11369)  8.58530116E-05                    1_GWF-(1,14801)
        471         10         21 -9.49323744E-04                    1_GWF-(1,11425) -8.44132959E-05                    1_GWF-(1,14801)
        472         10         22  7.64459885E-04                    1_GWF-(1,11425)  7.22454591E-05                    1_GWF-(1,14801)
        473         10         23 -7.82239942E-04                    1_GWF-(1,11369)  2.60518446E-05                    1_GWF-(1,14798)
        474         10         24  7.90450556E-04                    1_GWF-(1,26486) -3.56309321E-05                    1_GWF-(1,14801)
        475         10         25  7.37173818E-04                    1_GWF-(1,26487)  7.01301752E-05                    1_GWF-(1,14801)
        476         10         26 -7.94039801E-04                    1_GWF-(1,11369)  7.59239751E-05                    1_GWF-(1,14800)
        477         10         27 -8.05056454E-04                    1_GWF-(1,11425)  7.38885813E-05                    1_GWF-(1,14801)
        478         10         28 -6.99080815E-04                    1_GWF-(1,11453) -5.93751302E-05                    1_GWF-(1,14801)
        479         10         29 -7.50407456E-04                    1_GWF-(1,11458)  4.76731765E-05                    1_GWF-(1,14799)
        480         10         30 -5.98257146E-04                    1_GWF-(1,26588)  1.78356107E-05                    1_GWF-(1,14798)
        481         10         31 -6.04414400E-04                    1_GWF-(1,11453) -3.84610677E-05                    1_GWF-(1,14801)
        482         10         32 -6.75759177E-04                    1_GWF-(1,11458)  5.95109362E-05                    1_GWF-(1,14801)
        483         10         33  6.40395729E-04                    1_GWF-(1,11416)  4.52160551E-05                    1_GWF-(1,14800)
        484         10         34 -5.25965255E-04                    1_GWF-(1,11453)  5.10739793E-05                    1_GWF-(1,14799)
        485         10         35 -6.88468094E-04                    1_GWF-(1,11458)  3.18461787E-05                    1_GWF-(1,14800)
        486         10         36 -6.67281640E-04                    1_GWF-(1,26422)  4.38495214E-05                    1_GWF-(1,14799)
        487         10         37 -6.42031033E-04                    1_GWF-(1,26350)  2.20995565E-05                    1_GWF-(1,14798)
        488         10         38 -6.40987016E-04                    1_GWF-(1,26422)  2.25754930E-05                    1_GWF-(1,14800)
        489         10         39  8.37561761E-04                    1_GWF-(1,11414)  4.49628411E-05                    1_GWF-(1,14801)
        490         10         40  6.38805742E-04                    1_GWF-(1,11435) -4.36069574E-05                    1_GWF-(1,14801)
        491         10         41 -6.70647399E-04                    1_GWF-(1,11435)  6.24864032E-05                    1_GWF-(1,14801)
        492         10         42 -7.15798969E-04                    1_GWF-(1,11438)  5.90975570E-05                    1_GWF-(1,14800)
        493         10         43  6.16392129E-04                    1_GWF-(1,11438)  6.19688346E-05                    1_GWF-(1,14801)
        494         10         44 -6.43793888E-04                    1_GWF-(1,11435) -6.16804609E-05                    1_GWF-(1,14801)
        495         10         45 -8.27139842E-04                    1_GWF-(1,11438)  6.88432630E-05                    1_GWF-(1,14801)
        496         10         46  9.08408253E-04                    1_GWF-(1,11438)  4.80072072E-05                    1_GWF-(1,14800)
        497         10         47 -5.23510555E-04                    1_GWF-(1,11413)  5.38933748E-05                    1_GWF-(1,14801)
        498         10         48 -7.94570319E-04                    1_GWF-(1,11438)  4.35526679E-05                    1_GWF-(1,14800)
        499         10         49  7.61638810E-04                    1_GWF-(1,11438)  3.34456296E-05                    1_GWF-(1,14801)
        500         10         50  1.20798150E-03                    1_GWF-(1,11435) -4.40121923E-05                    1_GWF-(1,14801)
        501         11          1 -1.09056809E-03                    1_GWF-(1,11435)  3.51918040E-05                    1_GWF-(1,14801)
        502         11          2 -6.87995834E-04                    1_GWF-(1,11416)  3.89645388E-05                    1_GWF-(1,14800)
        503         11          3  4.18999809E-04                    1_GWF-(1,11435)  4.00326100E-05                    1_GWF-(1,14801)
        504         11          4  5.84901040E-04                    1_GWF-(1,11413)  2.14080211E-05                    1_GWF-(1,14800)
        505         11          5 -4.35703749E-04                    1_GWF-(1,26487)  1.48530479E-05                    1_GWF-(1,10966)
        506         11          6 -4.84400007E-04                    1_GWF-(1,11413)  3.50167594E-05                    1_GWF-(1,14801)
        507         11          7  3.66226873E-04                    1_GWF-(1,11438) -4.32134536E-05                    1_GWF-(1,14801)
        508         11          8  3.70273581E-04                    1_GWF-(1,11415)  5.55147034E-05                    1_GWF-(1,14801)
        509         11          9 -4.50284084E-04                    1_GWF-(1,11413)  4.76612230E-05                    1_GWF-(1,14800)
        510         11         10  3.48509982E-04                    1_GWF-(1,11435)  5.00741621E-05                    1_GWF-(1,14801)
        511         11         11  3.97240435E-04                    1_GWF-(1,11414)  4.58762076E-05                    1_GWF-(1,14800)
        512         11         12 -3.53215029E-04                    1_GWF-(1,11415)  4.86316887E-05                    1_GWF-(1,14801)
        513         11         13  3.80976804E-04                    1_GWF-(1,26350) -3.08815445E-05                    1_GWF-(1,14801)
        514         11         14  3.98572498E-04                    1_GWF-(1,26422)  2.58913652E-05                    1_GWF-(1,14801)
        515         11         15  3.76661462E-04                    1_GWF-(1,26350)  1.83978189E-05                    1_GWF-(1,14800)
        516         11         16  3.49587253E-04                    1_GWF-(1,26486)  2.20984508E-05                    1_GWF-(1,10966)
        517         11         17  3.09865568E-04                    1_GWF-(1,26544)  1.82634634E-05                    1_GWF-(1,14799)
        518         11         18  3.33123083E-04                    1_GWF-(1,26486)  1.59600764E-05                    1_GWF-(1,14800)
        519         11         19  3.30499875E-04                    1_GWF-(1,26622)  1.64371786E-05                    1_GWF-(1,14801)
        520         11         20  3.47356139E-04                    1_GWF-(1,26649) -2.21162993E-05                    1_GWF-(1,10966)
        521         11         21 -3.96059238E-04                    1_GWF-(1,26420)  2.93623259E-05                    1_GWF-(1,10966)
        522         11         22 -4.38268333E-04                    1_GWF-(1,26422)  3.12642116E-05                    1_GWF-(1,14799)
        523         11         23 -4.54085615E-04                    1_GWF-(1,26350) -2.32005537E-05                    1_GWF-(1,14799)
        524         11         24 -3.58163773E-04                    1_GWF-(1,11414)  2.66781985E-05                    1_GWF-(1,14801)
        525         11         25 -3.93442809E-04                    1_GWF-(1,26588)  1.72326900E-05                    1_GWF-(1,14800)
        526         11         26 -3.03383009E-04                    1_GWF-(1,26543)  1.51623501E-05                    1_GWF-(1,10966)
        527         11         27 -3.11465525E-04                    1_GWF-(1,26588)  1.86520255E-05                    1_GWF-(1,14799)
        528         11         28  2.15848934E-04                    1_GWF-(1,11414)  1.85313760E-05                    1_GWF-(1,14800)
[...]
        663         14         13 -2.32252917E-05                    1_GWF-(1,26487)  1.12255443E-06                    1_GWF-(1,14801)
        664         14         14 -2.28353043E-05                    1_GWF-(1,26420) -1.17892477E-06                    1_GWF-(1,14799)
        665         14         15  2.15616979E-05                    1_GWF-(1,26486)  2.19755106E-06                    1_GWF-(1,14799)
        666         14         16 -1.50791798E-05                    1_GWF-(1,26350) -1.47746773E-06                    1_GWF-(1,14799)
        667         14         17  1.92492008E-05                    1_GWF-(1,11436)  1.39792162E-06                    1_GWF-(1,14800)
        668         14         18  1.96043513E-05                    1_GWF-(1,11435)  1.64745047E-06                    1_GWF-(1,14801)
        669         14         19 -1.72289575E-05                    1_GWF-(1,26542)  1.44646623E-06                    1_GWF-(1,14800)
        670         14         20 -2.33491761E-05                    1_GWF-(1,26543)  1.08006865E-06                    1_GWF-(1,14801)
        671         14         21 -2.30204432E-05                    1_GWF-(1,26588) -9.22535771E-07                    1_GWF-(1,14799)
        672         14         22 -1.90182155E-05                    1_GWF-(1,26649)  1.26944981E-06                    1_GWF-(1,14799)
        673         14         23  1.61507490E-05                    1_GWF-(1,11415)  1.58764214E-06                    1_GWF-(1,14801)
        674         14         24 -1.72113421E-05                    1_GWF-(1,26217) -1.50560390E-06                    1_GWF-(1,14801)
        675         14         25 -1.83511666E-05                    1_GWF-(1,11452)  1.58545374E-06                    1_GWF-(1,14801)
        676         14         26  1.69365828E-05                    1_GWF-(1,26588)  1.03117411E-06                    1_GWF-(1,14800)
        677         14         27  2.17086020E-05                    1_GWF-(1,26665)  8.89273112E-07                    1_GWF-(1,14799)
        678         14         28 -1.79244016E-05                    1_GWF-(1,11452)  7.67595344E-07                    1_GWF-(1,14801)
        679         14         29 -1.58243589E-05                    1_GWF-(1,11416)  1.24270645E-06                    1_GWF-(1,14800)
        680         14         30  1.16573215E-05                    1_GWF-(1,26420)  1.62378975E-06                    1_GWF-(1,14801)
        681         14         31 -2.14979746E-05                    1_GWF-(1,11452) -1.59258944E-06                    1_GWF-(1,14801)
        682         14         32  1.48955099E-05                    1_GWF-(1,11452)  1.93686364E-06                    1_GWF-(1,14801)
        683         14         33  1.32473305E-05                    1_GWF-(1,11414)  1.44744738E-06                    1_GWF-(1,14800)
        684         14         34 -1.57657586E-05                    1_GWF-(1,11452)  1.54244665E-06                    1_GWF-(1,14801)
        685         14         35  1.80002300E-05                    1_GWF-(1,11452)  1.30046385E-06                    1_GWF-(1,14800)
        686         14         36 -1.49882524E-05                    1_GWF-(1,26422)  1.11953419E-06                    1_GWF-(1,14801)
        687         14         37 -1.45412427E-05                    1_GWF-(1,26350) -5.52761968E-07                    1_GWF-(1,14799)
        688         14         38  1.81142640E-05                    1_GWF-(1,11452)  7.44694173E-07                    1_GWF-(1,14799)
        689         14         39  1.59425348E-05                    1_GWF-(1,11415)  5.93166793E-07                    1_GWF-(1,14801)
        690         14         40  9.91495202E-06                    1_GWF-(1,11417)  5.76195103E-07                    1_GWF-(1,14800)
        691         14         41 -1.51288562E-05                    1_GWF-(1,11413)  5.84143012E-07                    1_GWF-(1,14801)
        692         14         42  1.18603030E-05                    1_GWF-(1,11415)  4.54738482E-07                    1_GWF-(1,14798)
        693         14         43  1.35668488E-05                    1_GWF-(1,11416)  4.77348966E-07                    1_GWF-(1,14799)
        694         14         44 -1.78906490E-05                    1_GWF-(1,11413)  6.12948509E-07                    1_GWF-(1,14801)
        695         14         45  1.15058251E-05                    1_GWF-(1,26350)  8.64492180E-07                    1_GWF-(1,14800)
        696         14         46  1.63059717E-05                    1_GWF-(1,11416)  1.09164111E-06                    1_GWF-(1,14801)
        697         14         47 -1.87712720E-05                    1_GWF-(1,11413) -1.08516256E-06                    1_GWF-(1,14801)
        698         14         48 -1.60434714E-05                    1_GWF-(1,11435)  1.36845727E-06                    1_GWF-(1,14801)
        699         14         49  1.05399631E-05                    1_GWF-(1,11413)  7.55262372E-07                    1_GWF-(1,14800)
        700         14         50  2.00576174E-05                    1_GWF-(1,11425)  1.86318275E-07                    1_GWF-(1,10961)
        701         15          1 -1.44999938E-05                    1_GWF-(1,11425)  1.88308100E-07                    1_GWF-(1,14801)
        702         15          2 -1.00652986E-05                    1_GWF-(1,26588)  2.11890506E-07                    1_GWF-(1,14801)
        703         15          3  1.67740817E-05                    1_GWF-(1,11425)  1.87069769E-07                    1_GWF-(1,14796)
        704         15          4  1.73509404E-05                    1_GWF-(1,11413)  2.36388083E-07                    1_GWF-(1,11206)
        705         15          5 -1.11930071E-05                    1_GWF-(1,11416)  2.89103177E-07                    1_GWF-(1,14800)
        706         15          6 -1.16305274E-05                    1_GWF-(1,11413)  2.44221630E-07                    1_GWF-(1,11206)
        707         15          7  1.68734424E-05                    1_GWF-(1,11413)  3.03117792E-07                    1_GWF-(1,14799)
        708         15          8 -1.06257834E-05                    1_GWF-(1,11416)  4.39976610E-07                    1_GWF-(1,14801)
        709         15          9 -9.16433510E-06                    1_GWF-(1,11413)  2.63768990E-07                    1_GWF-(1,14799)
        710         15         10  1.18852311E-05                    1_GWF-(1,11413)  2.13152248E-07                    1_GWF-(1,14799)
        711         15         11  8.81101356E-06                    1_GWF-(1,11414)  4.53009840E-07                    1_GWF-(1,14801)
        712         15         12 -1.00308783E-05                    1_GWF-(1,11413)  4.36228063E-07                    1_GWF-(1,14799)
        713         15         13  1.14017537E-05                    1_GWF-(1,26422)  2.30492721E-07                    1_GWF-(1,14798)
        714         15         14  9.96461577E-06                    1_GWF-(1,26420)  1.85359814E-07                    1_GWF-(1,14800)
        715         15         15  9.70527982E-06                    1_GWF-(1,26487)  2.17941209E-07                    1_GWF-(1,14799)
        716         15         16  9.14651302E-06                    1_GWF-(1,26420)  2.16857177E-07                    1_GWF-(1,14798)
        717         15         17  8.35968345E-06                    1_GWF-(1,26487)  2.65692295E-07                    1_GWF-(1,14799)
        718         15         18  1.04611040E-05                    1_GWF-(1,11452)  3.60441475E-07                    1_GWF-(1,14801)
        719         15         19 -9.69273386E-06                    1_GWF-(1,11452)  2.65151571E-07                    1_GWF-(1,14799)
        720         15         20  6.94460912E-06                    1_GWF-(1,26588) -2.14322562E-07                    1_GWF-(1,11206)
        721         15         21  1.12821175E-05                    1_GWF-(1,11452)  1.75313892E-07                    1_GWF-(1,11206)
        722         15         22 -1.31130896E-05                    1_GWF-(1,11452)  2.23942166E-07                    1_GWF-(1,14799)
        723         15         23 -8.85512400E-06                    1_GWF-(1,26588)  1.77177087E-07                    1_GWF-(1,14798)
        724         15         24 -8.97754457E-06                    1_GWF-(1,26543)  2.49459688E-07                    1_GWF-(1,14800)
        725         15         25 -1.05999294E-05                    1_GWF-(1,11452)  2.00233758E-07                    1_GWF-(1,14801)
        726         15         26 -8.44802656E-06                    1_GWF-(1,26486)  1.04283857E-07                    1_GWF-(1,14798)
        727         15         27  8.56905613E-06                    1_GWF-(1,11452)  1.74458950E-07                    1_GWF-(1,14800)
        728         15         28  6.48636915E-06                    1_GWF-(1,26649)  2.68820365E-07                    1_GWF-(1,14801)
        729         15         29  7.94662707E-06                    1_GWF-(1,26622)  1.88152612E-07                    1_GWF-(1,14799)
        730         15         30  6.61364615E-06                    1_GWF-(1,26623) -1.17045661E-07                    1_GWF-(1,10966)
        731         15         31 -5.92308632E-06                    1_GWF-(1,11452) -1.51394460E-07                    1_GWF-(1,10961)
        732         15         32 -5.50254777E-06                    1_GWF-(1,11415)  2.70602586E-07                    1_GWF-(1,14799)
        733         15         33 -6.12902654E-06                    1_GWF-(1,11438)  2.06136813E-07                    1_GWF-(1,14801)
        734         15         34 -5.69996874E-06                    1_GWF-(1,11452)  3.43129802E-07                    1_GWF-(1,14799)
        735         15         35  6.35778877E-06                    1_GWF-(1,26217)  4.51463984E-07                    1_GWF-(1,14801)
        736         15         36  7.21330427E-06                    1_GWF-(1,26218)  4.32916091E-07                    1_GWF-(1,14799)
        737         15         37  5.30469062E-06                    1_GWF-(1,11438)  5.22784641E-07                    1_GWF-(1,14801)
        738         15         38  6.65544053E-06                    1_GWF-(1,11417)  5.29525098E-07                    1_GWF-(1,14799)
        739         15         39  6.67636996E-06                    1_GWF-(1,26487)  3.05497548E-07                    1_GWF-(1,14801)
        740         15         40 -6.19723321E-06                    1_GWF-(1,26487)  1.29854571E-07                    1_GWF-(1,14801)
        741         15         41 -6.72618305E-06                    1_GWF-(1,26420)  4.25153111E-07                    1_GWF-(1,14799)
        742         15         42 -5.78522561E-06                    1_GWF-(1,26487)  5.71245635E-07                    1_GWF-(1,14801)
        743         15         43  3.64973188E-06                    1_GWF-(1,11416)  6.77830298E-07                    1_GWF-(1,14800)
        744         15         44  4.52808231E-06                    1_GWF-(1,11417)  7.67389827E-07                    1_GWF-(1,14801)
        745         15         45 -4.84256244E-06                    1_GWF-(1,11417) -5.18998857E-07                    1_GWF-(1,14801)
        746         15         46 -3.66792428E-06                    1_GWF-(1,11436)  1.99271784E-07                    1_GWF-(1,14801)
        747         15         47 -4.02634795E-06                    1_GWF-(1,26622)  2.14863860E-07                    1_GWF-(1,14801)
        748         15         48 -4.44114959E-06                    1_GWF-(1,26649)  4.02174096E-07                    1_GWF-(1,14800)
        749         15         49 -3.48912977E-06                    1_GWF-(1,26648)  4.98130854E-07                    1_GWF-(1,14801)
        750         15         50 -3.13690354E-06                    1_GWF-(1,26665)  4.57983715E-07                    1_GWF-(1,14800)
        751         16          1 -3.46194220E-06                    1_GWF-(1,11417)  8.19596966E-07                    1_GWF-(1,14801)
        752         16          2  4.01283405E-06                    1_GWF-(1,26666)  3.04213410E-07                    1_GWF-(1,14799)
        753         16          3  4.59138960E-06                    1_GWF-(1,26649)  1.14102813E-07                    1_GWF-(1,14801)
        754         16          4 -3.93374893E-06                    1_GWF-(1,11417)  2.65033968E-07                    1_GWF-(1,14801)
        755         16          5 -3.00901196E-06                    1_GWF-(1,26648) -5.52639583E-07                    1_GWF-(1,14801)
        756         16          6 -4.05330271E-06                    1_GWF-(1,11436)  6.10841913E-07                    1_GWF-(1,14801)
        757         16          7 -4.27847211E-06                    1_GWF-(1,11417)  3.97204791E-07                    1_GWF-(1,14800)
        758         16          8 -3.23499511E-06                    1_GWF-(1,26588)  2.23287489E-07                    1_GWF-(1,14801)
        759         16          9 -4.41366599E-06                    1_GWF-(1,26589)  9.36715230E-08                    1_GWF-(1,14798)
        760         16         10 -5.21832184E-06                    1_GWF-(1,26588)  3.17993598E-07                    1_GWF-(1,14800)
        761         16         11 -3.66125716E-06                    1_GWF-(1,11416)  4.50537999E-07                    1_GWF-(1,14801)
        762         16         12  2.92488976E-06                    1_GWF-(1,26589) -4.43470498E-07                    1_GWF-(1,14801)
        763         16         13 -2.69189996E-06                    1_GWF-(1,26486)  4.08680757E-07                    1_GWF-(1,14801)
        764         16         14  3.11367052E-06                    1_GWF-(1,26486)  1.53249758E-07                    1_GWF-(1,14800)
        765         16         15  3.74319719E-06                    1_GWF-(1,26487)  1.75755928E-07                    1_GWF-(1,14799)
        766         16         16 -3.65616975E-06                    1_GWF-(1,26487)  3.41737799E-07                    1_GWF-(1,14801)
        767         16         17 -2.99764186E-06                    1_GWF-(1,26420)  2.94172859E-07                    1_GWF-(1,14800)
        768         16         18  2.32497254E-06                    1_GWF-(1,11416)  2.42817657E-07                    1_GWF-(1,14801)
        769         16         19 -2.92262823E-06                    1_GWF-(1,11454)  2.07269398E-07                    1_GWF-(1,14800)
        770         16         20  2.30186525E-06                    1_GWF-(1,11417)  1.69545517E-07                    1_GWF-(1,14801)
        771         16         21 -2.30131543E-06                    1_GWF-(1,26663) -7.18534620E-08                    1_GWF-(1,14801)
        772         16         22 -2.54122869E-06                    1_GWF-(1,26665)  7.99646644E-08                    1_GWF-(1,14799)
        773         16         23  2.31532027E-06                    1_GWF-(1,11452)  1.28517581E-07                    1_GWF-(1,14801)
        774         16         24 -2.19029369E-06                    1_GWF-(1,26665)  1.27659109E-07                    1_GWF-(1,14799)
        775         16         25  2.15527130E-06                    1_GWF-(1,26665)  1.54212381E-07                    1_GWF-(1,14801)
        776         16         26  2.73044425E-06                    1_GWF-(1,11452)  1.60626344E-07                    1_GWF-(1,14800)
        777         16         27  2.43602776E-06                    1_GWF-(1,26622)  1.03486297E-07                    1_GWF-(1,14801)
        778         16         28  2.46390465E-06                    1_GWF-(1,11450)  6.64120775E-08                    1_GWF-(1,14800)
        779         16         29  2.21316397E-06                    1_GWF-(1,26420)  7.40602287E-08                    1_GWF-(1,14801)
        780         16         30  2.55779724E-06                    1_GWF-(1,26487)  5.09548959E-08                    1_GWF-(1,14798)
        781         16         31  2.65572777E-06                    1_GWF-(1,26486)  5.87583029E-08                    1_GWF-(1,14799)
        782         16         32  1.68935702E-06                    1_GWF-(1,11452)  7.30152129E-08                    1_GWF-(1,14801)
        783         16         33 -1.43612782E-06                    1_GWF-(1,26544)  4.96326782E-08                    1_GWF-(1,14800)
        784         16         34 -1.71422734E-06                    1_GWF-(1,26486)  1.04094560E-07                    1_GWF-(1,14799)
        785         16         35 -1.53731695E-06                    1_GWF-(1,26420)  7.71039830E-08                    1_GWF-(1,14798)
        786         16         36 -2.06687256E-06                    1_GWF-(1,26422)  1.00105002E-07                    1_GWF-(1,14799)
        787         16         37 -2.13752915E-06                    1_GWF-(1,11414)  9.15461208E-08                    1_GWF-(1,14798)
        788         16         38 -2.00691591E-06                    1_GWF-(1,26422)  1.08797064E-07                    1_GWF-(1,14799)
        789         16         39 -1.58670068E-06                    1_GWF-(1,26420)  7.77633135E-08                    1_GWF-(1,14801)
        790         16         40 -1.62055139E-06                    1_GWF-(1,26487)  4.36573146E-08                    1_GWF-(1,14798)
        791         16         41 -1.70950778E-06                    1_GWF-(1,26486)  1.08078444E-07                    1_GWF-(1,14799)
        792         16         42  1.46164599E-06                    1_GWF-(1,26486)  7.05452945E-08                    1_GWF-(1,14801)
        793         16         43  1.34326988E-06                    1_GWF-(1,26350)  6.53996144E-08                    1_GWF-(1,14800)
        794         16         44  1.56075150E-06                    1_GWF-(1,26422)  3.84693675E-08                    1_GWF-(1,14801)
        795         16         45  1.21457724E-06                    1_GWF-(1,26350)  4.08812865E-08                    1_GWF-(1,14800)
        796         16         46  1.26503978E-06                    1_GWF-(1,26622)  4.86115374E-08                    1_GWF-(1,14799)
        797         16         47  1.44336635E-06                    1_GWF-(1,26588)  4.40226086E-08                    1_GWF-(1,14798)
        798         16         48  1.33896036E-06                    1_GWF-(1,26589)  4.89040202E-08                    1_GWF-(1,14799)
        799         16         49  1.20720719E-06                    1_GWF-(1,26588)  5.02726359E-08                    1_GWF-(1,14801)
        800         16         50  1.66705770E-06                    1_GWF-(1,11425)  3.35080623E-08                    1_GWF-(1,14800)
        801         17          1 -1.28755209E-06                    1_GWF-(1,11425)  7.04635655E-08                    1_GWF-(1,14799)
        802         17          2  9.57980358E-07                    1_GWF-(1,26666)  3.84100487E-08                    1_GWF-(1,14798)
        803         18          1  8.86855489E-07                    1_GWF-(1,26665)  4.36968859E-08                    1_GWF-(1,14799)
 --------------------------------------------------------------------------------------------------------------------------------------



 MEMORY MANAGER TOTAL STORAGE BY DATA TYPE, IN MEGABYTES
 -------------------------------
                    ALLOCATED   
 DATA TYPE           MEMORY     
 -------------------------------
 Character        4.66090000E-02
 Logical          4.40000000E-05
 Integer          5.2037920     
 Real             11.901376     
 -------------------------------
 Total            17.151821     
 -------------------------------


 
 Run end date and time (yyyy/mm/dd hh:mm:ss): 2022/06/01 19:47:20
 Elapsed run time:  0.714 Seconds
 Normal termination of simulation.
