                                   MODFLOW 6
                U.S. GEOLOGICAL SURVEY MODULAR HYDROLOGIC MODEL
                          GROUNDWATER FLOW MODEL (GWF)
                            VERSION 6.2.2 07/30/2021

   MODFLOW 6 compiled Jul 31 2021 14:22:53 with IFORT compiler (ver. 19.10.3)

This software has been approved for release by the U.S. Geological 
Survey (USGS). Although the software has been subjected to rigorous 
review, the USGS reserves the right to update the software as needed 
pursuant to further analysis and review. No warranty, expressed or 
implied, is made by the USGS or the U.S. Government as to the 
functionality of the software and related material nor shall the 
fact of release constitute any such warranty. Furthermore, the 
software is released on condition that neither the USGS nor the U.S. 
Government shall be held liable for any damages resulting from its 
authorized or unauthorized use. Also refer to the USGS Water 
Resources Software User Rights Notice for complete use, copyright, 
and distribution information.


System command used to initiate simulation:
mf6

MODFLOW was compiled using uniform precision.

Real Variables
  KIND: 8
  TINY (smallest non-zero value):    2.225074-308
  HUGE (largest value):    1.797693+308
  PRECISION: 15
  BIT SIZE: 64

Integer Variables
  KIND: 4
  HUGE (largest value): 2147483647
  BIT SIZE: 32

Long Integer Variables
  KIND: 8
  HUGE (largest value): 9223372036854775807
  BIT SIZE: 64

Logical Variables
  KIND: 4
  BIT SIZE: 32
 

 OPENED ./ml.disv
 FILE TYPE:DISV6                  UNIT 1005   STATUS:OLD                 
 FORMAT:FORMATTED              ACCESS:SEQUENTIAL          
 ACTION:READ                


 OPENED ./ml.ic
 FILE TYPE:IC6                    UNIT 1006   STATUS:OLD                 
 FORMAT:FORMATTED              ACCESS:SEQUENTIAL          
 ACTION:READ                


 OPENED ./ml.npf
 FILE TYPE:NPF6                   UNIT 1007   STATUS:OLD                 
 FORMAT:FORMATTED              ACCESS:SEQUENTIAL          
 ACTION:READ                


 OPENED ./ml.ghb
 FILE TYPE:GHB6                   UNIT 1008   STATUS:OLD                 
 FORMAT:FORMATTED              ACCESS:SEQUENTIAL          
 ACTION:READ                


 OPENED ./ml.rcha
 FILE TYPE:RCH6                   UNIT 1009   STATUS:OLD                 
 FORMAT:FORMATTED              ACCESS:SEQUENTIAL          
 ACTION:READ                


 OPENED ./ml.obs
 FILE TYPE:OBS6                   UNIT 1010   STATUS:OLD                 
 FORMAT:FORMATTED              ACCESS:SEQUENTIAL          
 ACTION:READ                


 OPENED ./ml.oc
 FILE TYPE:OC6                    UNIT 1011   STATUS:OLD                 
 FORMAT:FORMATTED              ACCESS:SEQUENTIAL          
 ACTION:READ                


 OPENED ml.wel
 FILE TYPE:WEL6                   UNIT 1012   STATUS:OLD                 
 FORMAT:FORMATTED              ACCESS:SEQUENTIAL          
 ACTION:READ                


 OPENED ml.drn
 FILE TYPE:DRN6                   UNIT 1013   STATUS:OLD                 
 FORMAT:FORMATTED              ACCESS:SEQUENTIAL          
 ACTION:READ                


 OPENED ml.riv
 FILE TYPE:RIV6                   UNIT 1014   STATUS:OLD                 
 FORMAT:FORMATTED              ACCESS:SEQUENTIAL          
 ACTION:READ                


 DISV -- VERTEX GRID DISCRETIZATION PACKAGE, VERSION 1 : 12/23/2015 - INPUT READ FROM UNIT 1005


 # File generated by Flopy version 3.3.5 on 04/28/2022 at 15:59:32.

 PROCESSING DISCRETIZATION OPTIONS
    MODEL LENGTH UNIT IS METERS
    XORIGIN SPECIFIED AS     405575.681000000    
    YORIGIN SPECIFIED AS     6423306.54000000    
 END OF DISCRETIZATION OPTIONS

 PROCESSING DISCRETIZATION DIMENSIONS
   NLAY = 1
   NCPL = 26674
   NVERT = 27090
 END OF DISCRETIZATION DIMENSIONS

 PROCESSING GRIDDATA
 END PROCESSING GRIDDATA

 PROCESSING VERTICES
   SUCCESSFULLY READ 27090 (X,Y) COORDINATES
   MINIMUM X COORDINATE =     405575.681000000    
   MAXIMUM X COORDINATE =     413975.681000000    
   MINIMUM Y COORDINATE =     6423306.54000000    
   MAXIMUM Y COORDINATE =     6432506.54000000    
 END PROCESSING VERTICES

 PROCESSING CELL2D
   SUCCESSFULLY READ 26674 CELL2D INFORMATION ENTRIES
   MINIMUM X CELL CENTER =     405675.681000000    
   MAXIMUM X CELL CENTER =     413875.681000000    
   MINIMUM Y CELL CENTER =     6423406.54000000    
   MAXIMUM Y CELL CENTER =     6432406.54000000    
   MAXIMUM NUMBER OF CELL2D VERTICES IS 6 FOR CELL 208
 END PROCESSING VERTICES

 NPF -- NODE PROPERTY FLOW PACKAGE, VERSION 1, 3/30/2015 INPUT READ FROM UNIT 1007


 # File generated by Flopy version 3.3.5 on 04/28/2022 at 15:59:34.
 PROCESSING NPF OPTIONS
    CELL-BY-CELL FLOW INFORMATION WILL BE SAVED TO BINARY FILE WHENEVER ICBCFL IS NOT ZERO.
    SPECIFIC DISCHARGE WILL BE CALCULATED AT CELL CENTERS AND WRITTEN TO DATA-SPDIS IN BUDGET FILE WHEN REQUESTED.
 END OF NPF OPTIONS

 WEL   -- WEL PACKAGE, VERSION 8, 2/22/2014 INPUT READ FROM UNIT 1012
 # File generated by Flopy version 3.3.5 on 04/28/2022 at 15:59:35.

 PROCESSING WEL OPTIONS
    WEL BOUNDARIES HAVE NAMES IN LAST COLUMN.
    FLOWS WILL BE SAVED TO BUDGET FILE SPECIFIED IN OUTPUT CONTROL
 END OF WEL OPTIONS

 PROCESSING WEL DIMENSIONS
    MAXBOUND =       9
 END OF WEL DIMENSIONS

 DRN   -- DRN PACKAGE, VERSION 8, 2/22/2014 INPUT READ FROM UNIT 1013
 # File generated by Flopy version 3.3.5 on 04/28/2022 at 15:59:35.

 PROCESSING DRN OPTIONS
    DRN BOUNDARIES HAVE NAMES IN LAST COLUMN.
    FLOWS WILL BE SAVED TO BUDGET FILE SPECIFIED IN OUTPUT CONTROL

 OPENED ml.drn.obs
 FILE TYPE:OBS   UNIT 1016   STATUS:OLD                 
 FORMAT:FORMATTED              ACCESS:SEQUENTIAL          
 ACTION:READ                

 END OF DRN OPTIONS

 PROCESSING DRN DIMENSIONS
    MAXBOUND =     133
 END OF DRN DIMENSIONS

 RIV   -- RIV PACKAGE, VERSION 8, 2/22/2014 INPUT READ FROM UNIT 1014
 # File generated by Flopy version 3.3.5 on 04/28/2022 at 15:59:35.

 PROCESSING RIV OPTIONS
    AUXILIARY RIV VARIABLE: FID             
    RIV BOUNDARIES HAVE NAMES IN LAST COLUMN.
    FLOWS WILL BE SAVED TO BUDGET FILE SPECIFIED IN OUTPUT CONTROL
 END OF RIV OPTIONS

 PROCESSING RIV DIMENSIONS
    MAXBOUND =     794
 END OF RIV DIMENSIONS

 GHB   -- GHB PACKAGE, VERSION 8, 2/22/2014 INPUT READ FROM UNIT 1008
 # File generated by Flopy version 3.3.5 on 04/28/2022 at 15:59:34.

 PROCESSING GHB OPTIONS
    GHB BOUNDARIES HAVE NAMES IN LAST COLUMN.
    FLOWS WILL BE SAVED TO BUDGET FILE SPECIFIED IN OUTPUT CONTROL
 END OF GHB OPTIONS

 PROCESSING GHB DIMENSIONS
    MAXBOUND =     153
 END OF GHB DIMENSIONS

 RCH   -- RCH PACKAGE, VERSION 8, 2/22/2014 INPUT READ FROM UNIT 1009
 # File generated by Flopy version 3.3.5 on 04/28/2022 at 15:59:34.

 PROCESSING RCH OPTIONS
    RECHARGE INPUT WILL BE READ AS ARRAY(S).
    FLOWS WILL BE SAVED TO BUDGET FILE SPECIFIED IN OUTPUT CONTROL
 END OF RCH OPTIONS

 IC -- INITIAL CONDITIONS PACKAGE, VERSION 8, 3/28/2015 INPUT READ FROM UNIT 1006
 # File generated by Flopy version 3.3.5 on 04/28/2022 at 15:59:34.
 PROCESSING GRIDDATA

     INITIAL HEAD =   15.00000    
 END PROCESSING GRIDDATA
 PROCESSING GRIDDATA

                ICELLTYPE = 0

 OPENED ../com_ext/k.txt
 FILE TYPE:OPEN/CLOSE   UNIT 1017   STATUS:OLD                 
 FORMAT:FORMATTED              ACCESS:SEQUENTIAL          
 ACTION:READ                

 K33 not provided.  Assuming K33 = K.
 K22 not provided.  Assuming K22 = K.
 END PROCESSING GRIDDATA

The observation utility is active for "ML"
 # File generated by Flopy version 3.3.5 on 04/28/2022 at 15:59:35.

Processing observation options:

Text output number of digits of precision set to: 10
The PRINT_INPUT option has been specified.


 OBSERVATIONS READ FROM FILE "ml.obs"
 ----------------------------------------------------------------------------------------------------------------------------------------------------------------------------------------------------------------------------
 NAME                                     TYPE                                       TIME         LOCATION DATA                              OUTPUT FILENAME                                                                 
 ----------------------------------------------------------------------------------------------------------------------------------------------------------------------------------------------------------------------------
 PRG                                      CONTINUOUS  HEAD                           ALL TIMES    "1 16523"                                  sim/hds.csv                                                                     
 P8                                       CONTINUOUS  HEAD                           ALL TIMES    "1 10323"                                  sim/hds.csv                                                                     
 P24                                      CONTINUOUS  HEAD                           ALL TIMES    "1 9594"                                   sim/hds.csv                                                                     
 P25                                      CONTINUOUS  HEAD                           ALL TIMES    "1 13966"                                  sim/hds.csv                                                                     
 P32                                      CONTINUOUS  HEAD                           ALL TIMES    "1 15787"                                  sim/hds.csv                                                                     
 P33                                      CONTINUOUS  HEAD                           ALL TIMES    "1 15825"                                  sim/hds.csv                                                                     
 PF                                       CONTINUOUS  HEAD                           ALL TIMES    "1 21048"                                  sim/hds.csv                                                                     
 PH                                       CONTINUOUS  HEAD                           ALL TIMES    "1 20781"                                  sim/hds.csv                                                                     
 PZHM1                                    CONTINUOUS  HEAD                           ALL TIMES    "1 14521"                                  sim/hds.csv                                                                     
 P26                                      CONTINUOUS  HEAD                           ALL TIMES    "1 13141"                                  sim/hds.csv                                                                     
 P27                                      CONTINUOUS  HEAD                           ALL TIMES    "1 8465"                                   sim/hds.csv                                                                     
 P28                                      CONTINUOUS  HEAD                           ALL TIMES    "1 8924"                                   sim/hds.csv                                                                     
 P29                                      CONTINUOUS  HEAD                           ALL TIMES    "1 4524"                                   sim/hds.csv                                                                     
 P30                                      CONTINUOUS  HEAD                           ALL TIMES    "1 5255"                                   sim/hds.csv                                                                     
 R20                                      CONTINUOUS  HEAD                           ALL TIMES    "1 10676"                                  sim/hds.csv                                                                     
 R21                                      CONTINUOUS  HEAD                           ALL TIMES    "1 10403"                                  sim/hds.csv                                                                     
 P34                                      CONTINUOUS  HEAD                           ALL TIMES    "1 15131"                                  sim/hds.csv                                                                     
 P37                                      CONTINUOUS  HEAD                           ALL TIMES    "1 15755"                                  sim/hds.csv                                                                     
 P38                                      CONTINUOUS  HEAD                           ALL TIMES    "1 15045"                                  sim/hds.csv                                                                     
 P39                                      CONTINUOUS  HEAD                           ALL TIMES    "1 9637"                                   sim/hds.csv                                                                     
 P40                                      CONTINUOUS  HEAD                           ALL TIMES    "1 9312"                                   sim/hds.csv                                                                     
 AP1                                      CONTINUOUS  HEAD                           ALL TIMES    "1 9702"                                   sim/hds.csv                                                                     
 RCK1                                     CONTINUOUS  HEAD                           ALL TIMES    "1 15900"                                  sim/hds.csv                                                                     
 RCK2                                     CONTINUOUS  HEAD                           ALL TIMES    "1 15199"                                  sim/hds.csv                                                                     
 P23                                      CONTINUOUS  HEAD                           ALL TIMES    "1 6409"                                   sim/hds.csv                                                                     
 ----------------------------------------------------------------------------------------------------------------------------------------------------------------------------------------------------------------------------


    BINARY GRID INFORMATION WILL BE WRITTEN TO:
      UNIT NUMBER: 1019
      FILE NAME: /srv/common/ptrack/case_study/pst/ml_09/./ml.disv.grb

 OPENED /srv/common/ptrack/case_study/pst/ml_09/./ml.disv.grb
 FILE TYPE:DATA(BINARY)   UNIT 1019   STATUS:REPLACE             
 FORMAT:UNFORMATTED            ACCESS:STREAM              
 ACTION:READWRITE           

      THE LAST TIME STEP WILL BE PRINTED
      THE LAST TIME STEP WILL BE PRINTED
 # File generated by Flopy version 3.3.5 on 04/28/2022 at 15:59:35.

 PROCESSING OC OPTIONS

    BUDGET INFORMATION WILL BE WRITTEN TO:
      UNIT NUMBER: 1020
      FILE NAME: ml.cbc

 OPENED ml.cbc
 FILE TYPE:DATA(BINARY)   UNIT 1020   STATUS:REPLACE             
 FORMAT:UNFORMATTED            ACCESS:STREAM              
 ACTION:READWRITE           

    HEAD INFORMATION WILL BE WRITTEN TO:
      UNIT NUMBER: 1021
      FILE NAME: ml.hds

 OPENED ml.hds
 FILE TYPE:DATA(BINARY)   UNIT 1021   STATUS:REPLACE             
 FORMAT:UNFORMATTED            ACCESS:STREAM              
 ACTION:READWRITE           

 END OF OC OPTIONS

The observation utility is active for "DRN_0"
 # File generated by Flopy version 3.3.5 on 04/28/2022 at 15:59:35.

Processing observation options:



start timestep kper="1" kstp="1" mode="normal"


 BEGIN READING OUTPUT CONTROL FOR STRESS PERIOD 1
      THE LAST TIME STEP WILL BE SAVED
      THE LAST TIME STEP WILL BE SAVED

 END READING OUTPUT CONTROL FOR STRESS PERIOD 1

 OPENED ext/wel_spd_1.txt
 FILE TYPE:OPEN/CLOSE   UNIT 1023   STATUS:OLD                 
 FORMAT:FORMATTED              ACCESS:SEQUENTIAL          
 ACTION:READ                


 OPENED ext/drn_spd_1.txt
 FILE TYPE:OPEN/CLOSE   UNIT 1024   STATUS:OLD                 
 FORMAT:FORMATTED              ACCESS:SEQUENTIAL          
 ACTION:READ                


 OPENED ext/riv_spd_1.txt
 FILE TYPE:OPEN/CLOSE   UNIT 1025   STATUS:OLD                 
 FORMAT:FORMATTED              ACCESS:SEQUENTIAL          
 ACTION:READ                


 OPENED ../com_ext/ghb_spd_1.txt
 FILE TYPE:OPEN/CLOSE   UNIT 1026   STATUS:OLD                 
 FORMAT:FORMATTED              ACCESS:SEQUENTIAL          
 ACTION:READ                


 OPENED ../com_ext/rech_spd_1.txt
 FILE TYPE:OPEN/CLOSE   UNIT 1027   STATUS:OLD                 
 FORMAT:FORMATTED              ACCESS:SEQUENTIAL          
 ACTION:READ                


 SLN_1 INNER ITERATION SUMMARY
 --------------------------------------------------------------------------------------------------------------------------------------
      TOTAL      OUTER      INNER                                                            MAXIMUM                                   
  ITERATION  ITERATION  ITERATION  MAXIMUM CHANGE      MAXIMUM CHANGE MODEL-(CELLID)        RESIDUAL    MAXIMUM RESIDUAL MODEL-(CELLID)
 --------------------------------------------------------------------------------------------------------------------------------------
          1          1          1      -11.761766                    1_GWF-(1,12785)      0.32866095                    1_GWF-(1,11169)
          2          1          2       5.5353700                    1_GWF-(1,26601)     -0.22656301                    1_GWF-(1,11169)
          3          1          3       5.7754131                    1_GWF-(1,26565)     -0.13981926                    1_GWF-(1,11178)
          4          1          4       5.9256970                    1_GWF-(1,26512)      0.16222957                    1_GWF-(1,11178)
          5          1          5       5.6168304                    1_GWF-(1,26611)     -0.12314933                    1_GWF-(1,11180)
          6          1          6       5.9554187                    1_GWF-(1,26649)     -0.11604824                    1_GWF-(1,11157)
          7          1          7       4.8597143                    1_GWF-(1,26622) -6.89561696E-02                    1_GWF-(1,11158)
          8          1          8       3.9269572                    1_GWF-(1,26665) -6.89836127E-02                    1_GWF-(1,11180)
          9          1          9      -3.2805682                    1_GWF-(1,26665)  5.24440062E-02                    1_GWF-(1,11051)
         10          1         10      -2.8667899                    1_GWF-(1,26666) -5.58371775E-02                    1_GWF-(1,11158)
         11          1         11       2.5924815                    1_GWF-(1,26544) -5.92360211E-02                    1_GWF-(1,11180)
         12          1         12      -2.8649263                    1_GWF-(1,26622)  3.97865189E-02                    1_GWF-(1,11058)
         13          1         13      -3.4356503                    1_GWF-(1,26649)  4.33848611E-02                    1_GWF-(1,11180)
         14          1         14      -2.6212293                    1_GWF-(1,26622) -4.10460327E-02                    1_GWF-(1,11180)
         15          1         15      -1.7558416                    1_GWF-(1,26623)  2.85818198E-02                    1_GWF-(1,11026)
         16          1         16       1.4100915                    1_GWF-(1,26623)  4.88131524E-02                    1_GWF-(1,11180)
         17          1         17       1.6557646                    1_GWF-(1,26665)  4.00442546E-02                    1_GWF-(1,11051)
         18          1         18       2.0258154                    1_GWF-(1,26588) -3.40443283E-02                    1_GWF-(1,11194)
         19          1         19      -2.1586089                    1_GWF-(1,26588)  3.98907040E-02                    1_GWF-(1,11180)
         20          1         20      -1.7697223                    1_GWF-(1,26543) -2.48792761E-02                    1_GWF-(1,11104)
         21          1         21      -1.3867641                    1_GWF-(1,26544) -2.95651838E-02                    1_GWF-(1,11194)
         22          1         22      -1.6797451                    1_GWF-(1,26486)  3.21575721E-02                    1_GWF-(1,11180)
         23          1         23      -2.0868713                    1_GWF-(1,26487) -2.59945169E-02                    1_GWF-(1,11106)
         24          1         24      -2.2704443                    1_GWF-(1,26486) -2.96099981E-02                    1_GWF-(1,11194)
         25          1         25       1.9356899                    1_GWF-(1,26420) -3.54738395E-02                    1_GWF-(1,11109)
         26          1         26       2.1126807                    1_GWF-(1,26487)  2.81009930E-02                    1_GWF-(1,11151)
         27          1         27       1.8277938                    1_GWF-(1,26420) -2.78465812E-02                    1_GWF-(1,11101)
         28          1         28       1.2281208                    1_GWF-(1,26487) -3.15529651E-02                    1_GWF-(1,11109)
         29          1         29      0.89181132                    1_GWF-(1,26420)  3.32516173E-02                    1_GWF-(1,11109)
         30          1         30     -0.88135267                    1_GWF-(1,26420)  3.44385087E-02                    1_GWF-(1,11110)
         31          1         31      -1.1911415                    1_GWF-(1,26422)  2.78621838E-02                    1_GWF-(1,11105)
         32          1         32      -1.3072836                    1_GWF-(1,26350)  2.42152988E-02                     1_GWF-(1,5617)
         33          1         33      -1.4240912                    1_GWF-(1,26422)  2.90452911E-02                    1_GWF-(1,11110)
         34          1         34      -1.2124197                    1_GWF-(1,26350)  2.78797343E-02                    1_GWF-(1,11105)
         35          1         35     -0.96025671                    1_GWF-(1,26422) -3.54798591E-02                    1_GWF-(1,11105)
         36          1         36      0.87074565                    1_GWF-(1,20921) -3.98107805E-02                    1_GWF-(1,11114)
         37          1         37     -0.98846698                    1_GWF-(1,25240)  2.76947855E-02                    1_GWF-(1,11114)
         38          1         38      -1.0811857                    1_GWF-(1,25322)  3.23792561E-02                    1_GWF-(1,11103)
         39          1         39      -1.1783841                    1_GWF-(1,25455) -3.63999204E-02                    1_GWF-(1,11096)
         40          1         40      -1.1465876                    1_GWF-(1,20223)  3.77761873E-02                    1_GWF-(1,15107)
         41          1         41      -1.2208593                    1_GWF-(1,21381)  3.89539642E-02                    1_GWF-(1,11093)
         42          1         42      -1.4610155                    1_GWF-(1,21458) -4.26915701E-02                    1_GWF-(1,11093)
         43          1         43      -1.7988478                    1_GWF-(1,21487) -4.81719655E-02                    1_GWF-(1,11094)
         44          1         44      -1.9455752                    1_GWF-(1,21417)  4.94747991E-02                    1_GWF-(1,15107)
         45          1         45      -1.5929060                    1_GWF-(1,21435)  3.55439351E-02                    1_GWF-(1,11091)
         46          1         46      -1.3165197                    1_GWF-(1,20572)  3.14419795E-02                    1_GWF-(1,11093)
         47          1         47      -1.2639605                    1_GWF-(1,20920)  2.90191675E-02                    1_GWF-(1,11094)
         48          1         48      -1.2163215                    1_GWF-(1,26218) -2.59271097E-02                    1_GWF-(1,11094)
         49          1         49      -1.2124755                    1_GWF-(1,26217) -2.43164955E-02                    1_GWF-(1,11091)
         50          1         50      -1.4019919                    1_GWF-(1,26218)  2.01899186E-02                    1_GWF-(1,14801)
         51          2          1      -20.927978                    1_GWF-(1,26519) -8.82657010E-02                    1_GWF-(1,26519)
         52          2          2      -8.0899845                    1_GWF-(1,26569) -3.50747343E-02                    1_GWF-(1,26516)
         53          2          3      -4.1516505                    1_GWF-(1,26637)  2.18329317E-02                    1_GWF-(1,26516)
         54          2          4      -4.0937676                    1_GWF-(1,26665) -1.53633036E-02                    1_GWF-(1,26519)
         55          2          5      -2.7245836                    1_GWF-(1,26648)  1.24473281E-02                    1_GWF-(1,14799)
         56          2          6      -2.0374680                    1_GWF-(1,26586)  1.28628358E-02                    1_GWF-(1,14801)
         57          2          7      -1.8268762                    1_GWF-(1,26543)  1.13847014E-02                    1_GWF-(1,14799)
         58          2          8      -1.6970774                    1_GWF-(1,26486)  1.20178533E-02                    1_GWF-(1,14801)
         59          2          9      -1.4417708                    1_GWF-(1,26487)  1.04195939E-02                    1_GWF-(1,14799)
         60          2         10      -1.4019803                    1_GWF-(1,26218)  1.01697567E-02                    1_GWF-(1,14801)
         61          2         11      -1.4023281                    1_GWF-(1,26422)  9.15413779E-03                    1_GWF-(1,14801)
         62          2         12      -1.1436270                    1_GWF-(1,26217)  8.14593076E-03                    1_GWF-(1,14799)
         63          2         13      -1.0473688                    1_GWF-(1,26218)  8.46912175E-03                    1_GWF-(1,14801)
         64          2         14     -0.68391338                    1_GWF-(1,26649)  7.67244210E-03                    1_GWF-(1,14801)
         65          2         15     -0.62829800                    1_GWF-(1,26622)  7.52023827E-03                    1_GWF-(1,14801)
         66          2         16      0.96271778                    1_GWF-(1,26420)  8.03693765E-03                    1_GWF-(1,14801)
         67          2         17       1.2589386                    1_GWF-(1,26350)  7.46451661E-03                    1_GWF-(1,14799)
         68          2         18      0.96963302                    1_GWF-(1,26217)  7.90442180E-03                    1_GWF-(1,14801)
         69          2         19      0.70905282                    1_GWF-(1,26218)  7.94818930E-03                    1_GWF-(1,14801)
         70          2         20      0.51873606                    1_GWF-(1,26486)  7.58248991E-03                    1_GWF-(1,14801)
         71          2         21      0.83589892                    1_GWF-(1,26588)  8.09112506E-03                    1_GWF-(1,14801)
         72          2         22      0.93235099                    1_GWF-(1,26543)  7.71194254E-03                    1_GWF-(1,14801)
         73          2         23      0.60425497                    1_GWF-(1,25712)  8.04469356E-03                    1_GWF-(1,14801)
         74          2         24     -0.62837872                    1_GWF-(1,26422)  9.17412446E-03                    1_GWF-(1,14801)
         75          2         25     -0.85679230                    1_GWF-(1,26486)  9.18296252E-03                    1_GWF-(1,14799)
         76          2         26     -0.92753091                    1_GWF-(1,26487)  9.88024669E-03                    1_GWF-(1,14801)
         77          2         27     -0.59193408                    1_GWF-(1,26420)  1.00845905E-02                    1_GWF-(1,14801)
         78          2         28      0.32755789                    1_GWF-(1,25453)  9.79007431E-03                    1_GWF-(1,14799)
         79          2         29      0.38360242                    1_GWF-(1,26487)  1.06389375E-02                    1_GWF-(1,14801)
         80          2         30      0.40091785                    1_GWF-(1,26420)  1.01503559E-02                    1_GWF-(1,14799)
         81          2         31      0.34502111                    1_GWF-(1,25266)  1.08766969E-02                    1_GWF-(1,14801)
         82          2         32     -0.32806618                    1_GWF-(1,26157)  1.04335475E-02                    1_GWF-(1,14799)
         83          2         33     -0.30165814                    1_GWF-(1,26150)  1.02793195E-02                    1_GWF-(1,14801)
         84          2         34      0.26101246                    1_GWF-(1,26586)  8.83457393E-03                    1_GWF-(1,14799)
         85          2         35      0.33184234                    1_GWF-(1,26623)  8.23541293E-03                    1_GWF-(1,14801)
         86          2         36      0.27145641                    1_GWF-(1,26649)  6.63560053E-03                    1_GWF-(1,14799)
         87          2         37     -0.32544246                    1_GWF-(1,26350)  6.73665774E-03                    1_GWF-(1,14801)
         88          2         38     -0.31384379                    1_GWF-(1,26422)  6.47409961E-03                    1_GWF-(1,14801)
         89          2         39     -0.34901994                    1_GWF-(1,26649)  6.77971329E-03                    1_GWF-(1,14799)
         90          2         40     -0.38769173                    1_GWF-(1,26422)  7.36328901E-03                    1_GWF-(1,14801)
         91          2         41     -0.27515924                    1_GWF-(1,26420)  7.25462129E-03                    1_GWF-(1,14799)
         92          2         42      0.31287289                    1_GWF-(1,26350)  7.99237515E-03                    1_GWF-(1,14801)
         93          2         43     -0.29324305                    1_GWF-(1,26350)  7.36414217E-03                    1_GWF-(1,14799)
         94          2         44      0.34618972                    1_GWF-(1,21278)  7.65979161E-03                    1_GWF-(1,14801)
         95          2         45      0.40858088                    1_GWF-(1,21264)  6.48192777E-03                    1_GWF-(1,26625)
         96          2         46      0.42894191                    1_GWF-(1,20917)  4.57985400E-03                    1_GWF-(1,14801)
         97          2         47      0.36130789                    1_GWF-(1,20232) -3.40488945E-03                    1_GWF-(1,15940)
         98          2         48     -0.31503489                    1_GWF-(1,26665)  7.54789847E-03                    1_GWF-(1,26625)
         99          2         49     -0.32627380                    1_GWF-(1,21377) -6.38890397E-03                    1_GWF-(1,26625)
        100          2         50     -0.41236659                    1_GWF-(1,21349)  6.31051120E-03                    1_GWF-(1,15109)
        101          3          1      -1.0164147                    1_GWF-(1,16214) -4.00573723E-03                    1_GWF-(1,11460)
        102          3          2     -0.57153482                    1_GWF-(1,16200)  3.52020923E-03                    1_GWF-(1,15109)
        103          3          3     -0.38532970                    1_GWF-(1,16233)  4.91195215E-03                    1_GWF-(1,15108)
        104          3          4     -0.33057271                    1_GWF-(1,16536) -4.90562008E-03                    1_GWF-(1,15108)
        105          3          5     -0.26184079                    1_GWF-(1,21263) -3.68953252E-03                    1_GWF-(1,15109)
        106          3          6     -0.26964623                    1_GWF-(1,21260) -2.93586840E-03                    1_GWF-(1,15108)
        107          3          7      0.24084986                    1_GWF-(1,16538)  2.39877845E-03                    1_GWF-(1,15107)
        108          3          8      0.17692923                    1_GWF-(1,16545)  2.19651895E-03                    1_GWF-(1,11460)
        109          3          9     -0.16752895                    1_GWF-(1,16537)  2.22312845E-03                    1_GWF-(1,14799)
        110          3         10     -0.20920893                    1_GWF-(1,16542)  2.89608617E-03                    1_GWF-(1,14801)
        111          3         11     -0.19053827                    1_GWF-(1,16569)  3.26437757E-03                    1_GWF-(1,14799)
        112          3         12      0.18615374                    1_GWF-(1,26350)  2.88656518E-03                    1_GWF-(1,15108)
        113          3         13      0.21601789                    1_GWF-(1,26422) -2.59569787E-03                    1_GWF-(1,15108)
        114          3         14      0.23136747                    1_GWF-(1,26350)  2.16987524E-03                    1_GWF-(1,15108)
        115          3         15      0.19115690                    1_GWF-(1,26422)  1.76423915E-03                    1_GWF-(1,14801)
        116          3         16     -0.13882297                    1_GWF-(1,26422)  1.70681036E-03                    1_GWF-(1,14799)
        117          3         17     -0.10964694                    1_GWF-(1,26350)  1.86887994E-03                    1_GWF-(1,15021)
        118          3         18      0.13943718                    1_GWF-(1,11573)  2.36353000E-03                    1_GWF-(1,14936)
        119          3         19     -0.11723661                    1_GWF-(1,26586)  3.53357636E-03                    1_GWF-(1,14801)
        120          3         20     -0.11902483                    1_GWF-(1,16116)  4.50376496E-03                    1_GWF-(1,14799)
        121          3         21     -0.11909374                    1_GWF-(1,16803)  4.04997905E-03                    1_GWF-(1,14801)
        122          3         22     -0.11802821                    1_GWF-(1,11714)  3.38584651E-03                    1_GWF-(1,14799)
        123          3         23     -0.10816956                    1_GWF-(1,25444)  2.76667629E-03                    1_GWF-(1,15107)
        124          3         24     -0.10695278                    1_GWF-(1,25492)  2.52438704E-03                    1_GWF-(1,14801)
        125          3         25      0.16490489                    1_GWF-(1,26487)  2.24812041E-03                    1_GWF-(1,14801)
        126          3         26      0.19694819                    1_GWF-(1,26420)  1.81405203E-03                    1_GWF-(1,14801)
        127          3         27      0.20921844                    1_GWF-(1,26487)  2.04823716E-03                    1_GWF-(1,15109)
        128          3         28      0.14334637                    1_GWF-(1,26420)  2.73063729E-03                    1_GWF-(1,15107)
        129          3         29     -0.11684650                    1_GWF-(1,25720) -2.02501327E-03                    1_GWF-(1,15107)
        130          3         30     -0.15121294                    1_GWF-(1,26588)  1.83598081E-03                    1_GWF-(1,15107)
        131          3         31     -0.18249609                    1_GWF-(1,26543)  2.10570481E-03                    1_GWF-(1,14801)
        132          3         32     -0.16248871                    1_GWF-(1,26588)  2.10052317E-03                    1_GWF-(1,14799)
        133          3         33     -0.14098641                    1_GWF-(1,26543)  2.77347997E-03                    1_GWF-(1,15107)
        134          3         34     -0.13971635                    1_GWF-(1,26350) -3.15579763E-03                    1_GWF-(1,15107)
        135          3         35     -0.14672705                    1_GWF-(1,24856)  2.78251368E-03                    1_GWF-(1,15107)
        136          3         36     -0.14686940                    1_GWF-(1,21486)  1.49767915E-03                    1_GWF-(1,10342)
        137          3         37      0.13858385                    1_GWF-(1,26623)  1.82753567E-03                    1_GWF-(1,14938)
        138          3         38      0.14503353                    1_GWF-(1,26622)  3.31430602E-03                    1_GWF-(1,15107)
        139          3         39      0.12699359                    1_GWF-(1,26649)  2.14545896E-03                    1_GWF-(1,14938)
        140          3         40     -0.13574276                    1_GWF-(1,26649)  2.06702654E-03                    1_GWF-(1,14801)
        141          3         41      0.14367709                    1_GWF-(1,26665)  2.33917351E-03                    1_GWF-(1,14801)
        142          3         42     -0.18312293                    1_GWF-(1,26665) -2.92344294E-03                    1_GWF-(1,15107)
        143          3         43     -0.12968880                    1_GWF-(1,26666)  3.21815046E-03                    1_GWF-(1,15107)
        144          3         44 -9.87242914E-02                    1_GWF-(1,26665)  2.08050981E-03                    1_GWF-(1,14938)
        145          3         45      0.10899532                    1_GWF-(1,26588)  3.17150746E-03                    1_GWF-(1,15107)
        146          3         46      0.10999753                    1_GWF-(1,26648)  1.57898010E-03                    1_GWF-(1,14938)
        147          3         47      0.11606473                    1_GWF-(1,26649)  1.73139959E-03                    1_GWF-(1,15109)
        148          3         48     -0.10332919                    1_GWF-(1,26218)  2.17287751E-03                    1_GWF-(1,15108)
        149          3         49 -9.67366658E-02                    1_GWF-(1,26217)  2.64603820E-03                    1_GWF-(1,14801)
        150          3         50     -0.12415177                    1_GWF-(1,26649)  3.83070697E-03                    1_GWF-(1,15107)
        151          4          1  8.29621934E-02                    1_GWF-(1,26218)  2.67485247E-03                    1_GWF-(1,14938)
        152          4          2 -8.20298256E-02                    1_GWF-(1,26218)  3.10486649E-03                    1_GWF-(1,15107)
        153          4          3 -8.84300795E-02                    1_GWF-(1,26217) -2.08341495E-03                    1_GWF-(1,15107)
        154          4          4 -9.21112510E-02                    1_GWF-(1,26218)  2.16813566E-03                    1_GWF-(1,15107)
        155          4          5 -7.15227851E-02                    1_GWF-(1,26217)  1.22760988E-03                    1_GWF-(1,14938)
        156          4          6 -6.86019105E-02                    1_GWF-(1,26218)  8.21480565E-04                    1_GWF-(1,10342)
        157          4          7  7.69040561E-02                    1_GWF-(1,26665)  8.60188500E-04                    1_GWF-(1,10342)
        158          4          8  6.20166464E-02                    1_GWF-(1,26647)  1.11258559E-03                    1_GWF-(1,14801)
        159          4          9  8.38083470E-02                    1_GWF-(1,26665)  1.17937988E-03                    1_GWF-(1,14801)
        160          4         10 -8.34206245E-02                    1_GWF-(1,26665)  1.16069306E-03                    1_GWF-(1,14799)
        161          4         11  6.84840990E-02                    1_GWF-(1,26665)  7.34656196E-04                    1_GWF-(1,14801)
        162          4         12 -7.09066436E-02                    1_GWF-(1,26649)  1.20052482E-03                    1_GWF-(1,15107)
        163          4         13 -6.85452476E-02                    1_GWF-(1,26622)  1.10371348E-03                    1_GWF-(1,14938)
        164          4         14  5.66963294E-02                    1_GWF-(1,25272)  9.29017387E-04                    1_GWF-(1,15107)
        165          4         15  5.56699955E-02                    1_GWF-(1,22565)  7.04898618E-04                    1_GWF-(1,10342)
        166          4         16  6.45305739E-02                    1_GWF-(1,21411)  6.55336794E-04                    1_GWF-(1,15109)
        167          4         17  6.15199055E-02                    1_GWF-(1,21405)  1.05339654E-03                    1_GWF-(1,15107)
        168          4         18  5.19169234E-02                    1_GWF-(1,24704)  1.17246630E-03                    1_GWF-(1,14799)
        169          4         19  5.53769404E-02                    1_GWF-(1,26588)  1.27938031E-03                    1_GWF-(1,14801)
        170          4         20  5.32616923E-02                    1_GWF-(1,26543)  1.04567957E-03                    1_GWF-(1,14799)
        171          4         21 -4.65818754E-02                    1_GWF-(1,26486)  7.39093926E-04                    1_GWF-(1,14801)
        172          4         22 -4.84835817E-02                    1_GWF-(1,26487)  1.14831645E-03                    1_GWF-(1,15107)
        173          4         23 -4.83082343E-02                    1_GWF-(1,26486)  1.12953131E-03                    1_GWF-(1,14938)
        174          4         24 -5.16811070E-02                    1_GWF-(1,26487)  1.14126111E-03                    1_GWF-(1,15107)
        175          4         25 -4.77320606E-02                    1_GWF-(1,26588)  5.54092451E-04                    1_GWF-(1,14799)
        176          4         26  5.16823549E-02                    1_GWF-(1,26420)  7.16016978E-04                    1_GWF-(1,14801)
        177          4         27  3.76647254E-02                    1_GWF-(1,26487)  1.45457418E-03                    1_GWF-(1,15107)
        178          4         28  2.97014024E-02                    1_GWF-(1,11744)  1.22553085E-03                    1_GWF-(1,14799)
        179          4         29  3.55359217E-02                    1_GWF-(1,26543)  1.90324974E-03                    1_GWF-(1,15107)
        180          4         30  3.60575204E-02                    1_GWF-(1,26586)  1.33781700E-03                    1_GWF-(1,14938)
        181          4         31  3.61747665E-02                    1_GWF-(1,26623)  1.60850129E-03                    1_GWF-(1,15107)
        182          4         32  3.04664184E-02                     1_GWF-(1,8442) -1.33743131E-03                    1_GWF-(1,15107)
        183          4         33  2.24842823E-02                    1_GWF-(1,26421)  1.83865931E-03                    1_GWF-(1,15107)
        184          4         34  2.99599052E-02                    1_GWF-(1,26350)  9.34734108E-04                    1_GWF-(1,14938)
        185          4         35  3.54930196E-02                    1_GWF-(1,26422)  6.91199660E-04                    1_GWF-(1,14798)
        186          4         36 -3.28521833E-02                    1_GWF-(1,26422)  6.16604405E-04                    1_GWF-(1,14801)
        187          4         37 -4.24316342E-02                    1_GWF-(1,26350)  8.05469190E-04                    1_GWF-(1,14801)
        188          4         38 -4.69021600E-02                    1_GWF-(1,26422)  1.15354026E-03                    1_GWF-(1,15107)
        189          4         39 -4.93405052E-02                    1_GWF-(1,26350) -1.05773569E-03                    1_GWF-(1,15107)
        190          4         40 -5.13278364E-02                    1_GWF-(1,26422)  1.28464237E-03                    1_GWF-(1,15107)
        191          4         41 -3.92382477E-02                    1_GWF-(1,26350)  6.99233388E-04                    1_GWF-(1,15022)
        192          4         42 -2.76271514E-02                    1_GWF-(1,26422)  8.37711678E-04                    1_GWF-(1,15107)
        193          4         43 -2.24720633E-02                    1_GWF-(1,16545)  3.87018926E-04                    1_GWF-(1,10342)
        194          4         44 -2.62535197E-02                    1_GWF-(1,16538)  5.26445431E-04                    1_GWF-(1,15109)
        195          4         45 -2.74452209E-02                    1_GWF-(1,16237) -4.02446143E-04                    1_GWF-(1,15109)
        196          4         46 -2.29419470E-02                    1_GWF-(1,16230)  5.03727361E-04                    1_GWF-(1,14799)
        197          4         47  3.00367209E-02                    1_GWF-(1,16536)  6.21538157E-04                    1_GWF-(1,14801)
        198          4         48  3.53018461E-02                    1_GWF-(1,16192)  6.78785448E-04                    1_GWF-(1,14799)
        199          4         49  4.17225297E-02                    1_GWF-(1,16200)  9.28892078E-04                    1_GWF-(1,15107)
        200          4         50  3.56197202E-02                    1_GWF-(1,14464) -1.91681326E-03                    1_GWF-(1,15107)
        201          5          1 -5.56237287E-02                    1_GWF-(1,16203)  1.09907668E-03                    1_GWF-(1,15107)
        202          5          2 -3.21467864E-02                    1_GWF-(1,11421) -1.22740130E-03                    1_GWF-(1,15107)
        203          5          3 -2.78638532E-02                    1_GWF-(1,16236)  1.21459032E-03                    1_GWF-(1,15107)
        204          5          4 -2.41705286E-02                    1_GWF-(1,16583) -7.54686151E-04                    1_GWF-(1,15107)
        205          5          5 -2.43589815E-02                    1_GWF-(1,20233)  5.32015829E-04                    1_GWF-(1,15107)
        206          5          6 -1.98733213E-02                    1_GWF-(1,26486) -3.62070251E-04                    1_GWF-(1,15107)
        207          5          7  1.59214236E-02                    1_GWF-(1,11426)  3.24921134E-04                    1_GWF-(1,14801)
        208          5          8 -1.37491349E-02                    1_GWF-(1,16734)  4.24344617E-04                    1_GWF-(1,14798)
        209          5          9  1.69257236E-02                    1_GWF-(1,20572)  3.53971467E-04                    1_GWF-(1,14938)
        210          5         10  1.81284744E-02                    1_GWF-(1,26350)  6.90527180E-04                    1_GWF-(1,15107)
        211          5         11  1.95199724E-02                    1_GWF-(1,26422)  5.87496704E-04                    1_GWF-(1,14938)
        212          5         12  2.01755519E-02                    1_GWF-(1,26350)  8.69446390E-04                    1_GWF-(1,15107)
        213          5         13  2.31767770E-02                    1_GWF-(1,26422)  5.41059274E-04                    1_GWF-(1,14938)
        214          5         14  2.26110781E-02                    1_GWF-(1,26544)  4.98165871E-04                    1_GWF-(1,15107)
        215          5         15  2.36220902E-02                    1_GWF-(1,26486)  3.99243943E-04                    1_GWF-(1,14798)
        216          5         16  1.81773440E-02                    1_GWF-(1,26649)  3.90892230E-04                    1_GWF-(1,14799)
        217          5         17  1.85784750E-02                    1_GWF-(1,26486)  6.28350091E-04                    1_GWF-(1,15107)
        218          5         18  1.40475132E-02                    1_GWF-(1,26588)  2.91428598E-04                    1_GWF-(1,14801)
        219          5         19 -1.50914085E-02                    1_GWF-(1,26588)  2.72603509E-04                    1_GWF-(1,14799)
        220          5         20  1.34687977E-02                    1_GWF-(1,26422)  5.58215527E-04                    1_GWF-(1,15107)
        221          5         21 -1.51644323E-02                    1_GWF-(1,26623)  5.63937972E-04                    1_GWF-(1,14938)
        222          5         22 -1.50542680E-02                    1_GWF-(1,25290)  8.14831508E-04                    1_GWF-(1,15107)
        223          5         23 -1.27034379E-02                    1_GWF-(1,25279) -7.25200467E-04                    1_GWF-(1,15107)
        224          5         24 -1.10840927E-02                    1_GWF-(1,26544)  8.20875754E-04                    1_GWF-(1,15107)
        225          5         25 -1.29024463E-02                    1_GWF-(1,26486) -5.81288981E-04                    1_GWF-(1,15107)
        226          5         26 -1.59099121E-02                    1_GWF-(1,26487)  2.30570279E-04                    1_GWF-(1,15107)
        227          5         27  1.69010836E-02                    1_GWF-(1,26622)  4.91487521E-04                    1_GWF-(1,15107)
        228          5         28  1.35127164E-02                    1_GWF-(1,26649)  4.32357816E-04                    1_GWF-(1,14938)
        229          5         29 -1.06125987E-02                    1_GWF-(1,24717)  5.24028855E-04                    1_GWF-(1,15107)
        230          5         30 -1.25234435E-02                    1_GWF-(1,24958) -4.64785131E-04                    1_GWF-(1,15107)
        231          5         31 -1.30522086E-02                    1_GWF-(1,24957)  5.77742029E-04                    1_GWF-(1,15107)
        232          5         32 -1.42150677E-02                    1_GWF-(1,24675)  3.30031282E-04                    1_GWF-(1,14799)
        233          5         33 -1.62089406E-02                    1_GWF-(1,24702)  2.99642098E-04                    1_GWF-(1,15107)
        234          5         34 -1.56890236E-02                    1_GWF-(1,24701)  1.59423920E-04                    1_GWF-(1,14800)
        235          5         35  1.41570075E-02                    1_GWF-(1,26543) -1.99004441E-04                    1_GWF-(1,15107)
        236          5         36  1.73081322E-02                    1_GWF-(1,26588) -2.50052387E-04                    1_GWF-(1,14938)
        237          5         37 -1.48666002E-02                    1_GWF-(1,21420) -2.71344038E-04                    1_GWF-(1,15107)
        238          5         38 -1.36858511E-02                    1_GWF-(1,24588)  3.07309403E-04                    1_GWF-(1,15107)
        239          5         39 -1.13751010E-02                    1_GWF-(1,26588)  2.00527301E-04                    1_GWF-(1,14798)
        240          5         40 -1.49016809E-02                    1_GWF-(1,26665) -1.94545063E-04                    1_GWF-(1,15107)
        241          5         41 -1.41035647E-02                    1_GWF-(1,26666)  2.44075602E-04                    1_GWF-(1,15107)
        242          5         42 -1.46874794E-02                    1_GWF-(1,26665)  2.81061678E-04                    1_GWF-(1,14801)
        243          5         43 -1.04943443E-02                    1_GWF-(1,26666)  2.05307994E-04                    1_GWF-(1,14799)
        244          5         44 -9.72477180E-03                    1_GWF-(1,26665)  1.33681465E-04                    1_GWF-(1,11460)
        245          5         45  1.13268061E-02                    1_GWF-(1,26218)  1.90940950E-04                    1_GWF-(1,14938)
        246          5         46  9.45017065E-03                    1_GWF-(1,26217)  3.75473264E-04                    1_GWF-(1,15107)
        247          5         47 -1.02455693E-02                    1_GWF-(1,26217) -3.48136598E-04                    1_GWF-(1,15107)
        248          5         48 -1.02945925E-02                    1_GWF-(1,26218)  4.38918931E-04                    1_GWF-(1,15107)
        249          5         49  1.02650732E-02                    1_GWF-(1,26218)  2.93816208E-04                    1_GWF-(1,14938)
        250          5         50  1.03439817E-02                    1_GWF-(1,26217)  3.58977510E-04                    1_GWF-(1,15107)
        251          6          1  7.44523440E-03                    1_GWF-(1,11456) -7.94669607E-04                    1_GWF-(1,11459)
        252          6          2  7.16435857E-03                    1_GWF-(1,26217)  4.60328954E-04                    1_GWF-(1,15107)
        253          6          3  1.23863768E-02                    1_GWF-(1,26218)  7.92683310E-04                    1_GWF-(1,11459)
        254          6          4 -1.02714541E-02                    1_GWF-(1,26218) -4.69051768E-04                    1_GWF-(1,11459)
        255          6          5  7.90879001E-03                    1_GWF-(1,21678)  1.13555677E-04                    1_GWF-(1,14938)
        256          6          6 -8.98665516E-03                    1_GWF-(1,26218)  2.42263679E-04                    1_GWF-(1,11459)
        257          6          7 -7.34479000E-03                    1_GWF-(1,26217) -2.79410942E-04                    1_GWF-(1,11459)
        258          6          8  7.12946607E-03                    1_GWF-(1,21666)  1.28986259E-04                    1_GWF-(1,14801)
        259          6          9  8.98299709E-03                    1_GWF-(1,26665)  1.92830023E-04                    1_GWF-(1,15107)
        260          6         10  9.09574865E-03                    1_GWF-(1,26666) -1.68081602E-04                    1_GWF-(1,11459)
        261          6         11  8.99341366E-03                    1_GWF-(1,26665)  9.87117318E-05                    1_GWF-(1,14798)
        262          6         12  8.83809582E-03                    1_GWF-(1,11456)  1.89819036E-04                    1_GWF-(1,15107)
        263          6         13  7.73094374E-03                    1_GWF-(1,24313) -1.74363318E-04                    1_GWF-(1,15107)
        264          6         14  7.71590658E-03                    1_GWF-(1,21421)  1.76897592E-04                    1_GWF-(1,15107)
        265          6         15  9.56384895E-03                    1_GWF-(1,11456)  1.07674977E-04                    1_GWF-(1,14938)
        266          6         16  6.74210863E-03                    1_GWF-(1,21413) -8.96675467E-05                    1_GWF-(1,11459)
        267          6         17  7.07475589E-03                    1_GWF-(1,21302)  1.46277191E-04                    1_GWF-(1,15107)
        268          6         18  1.05782172E-02                    1_GWF-(1,11456)  1.57921932E-04                    1_GWF-(1,14799)
        269          6         19  5.58566972E-03                    1_GWF-(1,24678)  2.67655809E-04                    1_GWF-(1,15107)
        270          6         20 -5.62284451E-03                    1_GWF-(1,11456) -1.90794560E-04                    1_GWF-(1,15107)
        271          6         21  1.07961910E-02                    1_GWF-(1,11456)  2.04919142E-04                    1_GWF-(1,15107)
        272          6         22 -7.33001500E-03                    1_GWF-(1,11456) -1.64793476E-04                    1_GWF-(1,15107)
        273          6         23 -3.80064802E-03                    1_GWF-(1,26649)  1.83098098E-04                    1_GWF-(1,15107)
        274          6         24  7.82028119E-03                    1_GWF-(1,11456)  5.62331682E-05                    1_GWF-(1,14824)
        275          6         25  6.64934559E-03                    1_GWF-(1,26487) -1.53405649E-04                    1_GWF-(1,15107)
        276          6         26 -6.58559229E-03                    1_GWF-(1,11456)  2.30308322E-04                    1_GWF-(1,15107)
        277          6         27  1.02426206E-02                    1_GWF-(1,11456) -1.87163973E-04                    1_GWF-(1,15107)
        278          6         28 -5.46762430E-03                    1_GWF-(1,11456)  2.47310809E-04                    1_GWF-(1,15107)
        279          6         29  4.10219839E-03                    1_GWF-(1,26649)  1.35178453E-04                    1_GWF-(1,14938)
        280          6         30  8.69112252E-03                    1_GWF-(1,11456)  1.16869990E-04                    1_GWF-(1,15107)
        281          6         31  5.89849844E-03                    1_GWF-(1,26649)  6.09898908E-05                    1_GWF-(1,14799)
        282          6         32  5.05816830E-03                    1_GWF-(1,26622) -9.39629461E-05                    1_GWF-(1,15107)
        283          6         33  7.01106377E-03                    1_GWF-(1,11456)  1.35592096E-04                    1_GWF-(1,15107)
        284          6         34 -4.34989913E-03                    1_GWF-(1,26623)  7.49492158E-05                    1_GWF-(1,14799)
        285          6         35 -4.90777271E-03                    1_GWF-(1,11456)  6.64535004E-05                    1_GWF-(1,14801)
        286          6         36  7.18968196E-03                    1_GWF-(1,11456)  9.06080626E-05                    1_GWF-(1,14801)
        287          6         37 -4.50343450E-03                    1_GWF-(1,26350)  9.57243476E-05                    1_GWF-(1,14938)
        288          6         38 -5.11356934E-03                    1_GWF-(1,26422)  1.71561381E-04                    1_GWF-(1,15107)
        289          6         39  7.04411314E-03                    1_GWF-(1,11456)  1.03538152E-04                    1_GWF-(1,14938)
        290          6         40 -4.73639379E-03                    1_GWF-(1,11456)  1.13213802E-04                    1_GWF-(1,15107)
        291          6         41 -3.78628027E-03                    1_GWF-(1,26350)  4.90429618E-05                    1_GWF-(1,14938)
        292          6         42  5.27771526E-03                    1_GWF-(1,11456)  6.83227952E-05                    1_GWF-(1,14801)
        293          6         43 -5.08453204E-03                    1_GWF-(1,11456)  7.31647947E-05                    1_GWF-(1,11455)
        294          6         44 -2.32136898E-03                    1_GWF-(1,16540) -7.71440255E-05                    1_GWF-(1,11455)
        295          6         45  3.04733259E-03                    1_GWF-(1,11456)  9.21685645E-05                    1_GWF-(1,15107)
        296          6         46 -4.94897932E-03                    1_GWF-(1,11456) -1.29626043E-04                    1_GWF-(1,15107)
        297          6         47  3.43839343E-03                    1_GWF-(1,16538)  1.54587117E-04                    1_GWF-(1,15107)
        298          6         48  3.75208276E-03                    1_GWF-(1,16194) -1.32974132E-04                    1_GWF-(1,15107)
        299          6         49  3.78865803E-03                    1_GWF-(1,16113)  1.58126222E-04                    1_GWF-(1,15107)
        300          6         50  5.27762115E-03                    1_GWF-(1,11456) -1.93540091E-04                    1_GWF-(1,15107)
        301          7          1 -8.01725172E-03                    1_GWF-(1,11456) -1.01024217E-04                    1_GWF-(1,11456)
        302          7          2 -3.73590745E-03                    1_GWF-(1,16231) -1.43475354E-04                    1_GWF-(1,15107)
        303          7          3 -2.98785690E-03                    1_GWF-(1,16236)  1.78817024E-04                    1_GWF-(1,15107)
        304          7          4 -3.13933651E-03                    1_GWF-(1,16580) -8.49853146E-05                    1_GWF-(1,15107)
        305          7          5 -4.10602118E-03                    1_GWF-(1,11455)  5.07243589E-05                    1_GWF-(1,14801)
        306          7          6  5.02749304E-03                    1_GWF-(1,11455) -3.93202373E-05                    1_GWF-(1,15107)
        307          7          7  3.22872235E-03                    1_GWF-(1,11380) -3.57944825E-05                    1_GWF-(1,11456)
        308          7          8 -1.82609592E-03                    1_GWF-(1,19052)  4.83871477E-05                    1_GWF-(1,14801)
        309          7          9  3.83154358E-03                    1_GWF-(1,11455)  4.15365617E-05                    1_GWF-(1,14938)
        310          7         10 -4.18709064E-03                    1_GWF-(1,11455)  8.79963191E-05                    1_GWF-(1,15107)
        311          7         11 -3.90218180E-03                    1_GWF-(1,11380)  7.10331306E-05                    1_GWF-(1,14938)
        312          7         12  2.43540948E-03                    1_GWF-(1,26350)  9.66414142E-05                    1_GWF-(1,15107)
        313          7         13  2.98065285E-03                    1_GWF-(1,26422) -6.12792042E-05                    1_GWF-(1,15107)
        314          7         14 -3.34092156E-03                    1_GWF-(1,11380)  5.76986960E-05                    1_GWF-(1,15107)
        315          7         15  2.25492220E-03                    1_GWF-(1,26623)  4.54669290E-05                    1_GWF-(1,14798)
        316          7         16  1.88790110E-03                    1_GWF-(1,26586)  4.70790731E-05                    1_GWF-(1,14799)
        317          7         17 -2.09330202E-03                    1_GWF-(1,11380)  6.79159469E-05                    1_GWF-(1,15107)
        318          7         18 -2.17758571E-03                    1_GWF-(1,26623) -4.90067844E-05                    1_GWF-(1,15107)
        319          7         19 -2.50187698E-03                    1_GWF-(1,26622)  2.38370568E-05                    1_GWF-(1,10342)
        320          7         20 -2.78930096E-03                    1_GWF-(1,26649)  3.87339102E-05                    1_GWF-(1,15107)
        321          7         21 -2.13545653E-03                    1_GWF-(1,26622)  5.74794790E-05                    1_GWF-(1,14938)
        322          7         22 -1.86767399E-03                    1_GWF-(1,26649)  1.07222943E-04                    1_GWF-(1,15107)
        323          7         23 -1.87823376E-03                    1_GWF-(1,26486) -6.75280209E-05                    1_GWF-(1,15107)
        324          7         24 -1.93341116E-03                    1_GWF-(1,26487)  4.96736422E-05                    1_GWF-(1,15107)
        325          7         25 -2.53568000E-03                    1_GWF-(1,26420)  2.78561832E-05                    1_GWF-(1,14801)
        326          7         26 -2.62837426E-03                    1_GWF-(1,26487) -3.81674118E-05                    1_GWF-(1,15107)
        327          7         27 -2.01915774E-03                    1_GWF-(1,26420)  8.38396536E-05                    1_GWF-(1,15107)
        328          7         28 -1.34883357E-03                    1_GWF-(1,24345) -5.07721668E-05                    1_GWF-(1,15107)
        329          7         29 -1.42774748E-03                    1_GWF-(1,24429)  3.74689338E-05                    1_GWF-(1,15107)
        330          7         30 -1.47277518E-03                    1_GWF-(1,24961)  2.34755460E-05                    1_GWF-(1,14826)
        331          7         31  1.54289055E-03                    1_GWF-(1,26588)  3.48993473E-05                    1_GWF-(1,14938)
        332          7         32 -1.57524871E-03                    1_GWF-(1,24679)  6.74391823E-05                    1_GWF-(1,15107)
        333          7         33 -1.85564277E-03                    1_GWF-(1,24702) -4.96224338E-05                    1_GWF-(1,15107)
        334          7         34 -1.90673005E-03                    1_GWF-(1,24704)  6.59735174E-05                    1_GWF-(1,15107)
        335          7         35 -1.62878428E-03                    1_GWF-(1,24689)  3.48840852E-05                    1_GWF-(1,15939)
        336          7         36 -1.73310553E-03                    1_GWF-(1,21424)  3.44120680E-05                    1_GWF-(1,15107)
        337          7         37 -1.67508103E-03                    1_GWF-(1,21420)  2.55654894E-05                    1_GWF-(1,15939)
        338          7         38 -1.62831998E-03                    1_GWF-(1,24588)  2.56947596E-05                    1_GWF-(1,15107)
        339          7         39 -1.35092547E-03                    1_GWF-(1,26218)  2.25875587E-05                    1_GWF-(1,11459)
        340          7         40 -1.53476073E-03                    1_GWF-(1,26665) -2.90085793E-05                    1_GWF-(1,15107)
        341          7         41 -1.64535771E-03                    1_GWF-(1,26666)  2.39818618E-05                    1_GWF-(1,15107)
        342          7         42 -1.76587428E-03                    1_GWF-(1,26665)  2.63314185E-05                    1_GWF-(1,14801)
        343          7         43 -1.34086686E-03                    1_GWF-(1,26666) -2.55524744E-05                    1_GWF-(1,11459)
        344          7         44 -1.08348059E-03                    1_GWF-(1,26665)  1.81256028E-05                    1_GWF-(1,15107)
        345          7         45  1.36314123E-03                    1_GWF-(1,26218)  2.44951392E-05                    1_GWF-(1,11459)
        346          7         46  1.21711553E-03                    1_GWF-(1,26217)  4.75371107E-05                    1_GWF-(1,15107)
        347          7         47  1.34828736E-03                    1_GWF-(1,26218) -4.49413269E-05                    1_GWF-(1,15107)
        348          7         48 -1.27016317E-03                    1_GWF-(1,26218)  5.69446083E-05                    1_GWF-(1,15107)
        349          7         49  1.21076718E-03                    1_GWF-(1,26218) -3.48153245E-05                    1_GWF-(1,15107)
        350          7         50  1.22291362E-03                    1_GWF-(1,26217)  3.97231466E-05                    1_GWF-(1,15107)
        351          8          1 -6.86323180E-03                    1_GWF-(1,11460) -9.11687104E-05                    1_GWF-(1,11455)
        352          8          2 -3.60171860E-03                    1_GWF-(1,11439)  5.05131360E-05                    1_GWF-(1,15107)
        353          8          3  2.74056693E-03                    1_GWF-(1,11439)  9.97915793E-05                    1_GWF-(1,11455)
        354          8          4  1.96462402E-03                    1_GWF-(1,11482) -5.68337603E-05                    1_GWF-(1,11455)
        355          8          5 -4.29836172E-03                    1_GWF-(1,11439)  1.36902959E-05                    1_GWF-(1,14938)
        356          8          6  3.52851723E-03                    1_GWF-(1,11439)  4.06735716E-05                    1_GWF-(1,11455)
        357          8          7  2.90451139E-03                    1_GWF-(1,11460) -3.86530177E-05                    1_GWF-(1,11455)
        358          8          8 -2.03423515E-03                    1_GWF-(1,11460)  1.51074236E-05                    1_GWF-(1,14801)
        359          8          9  1.67142868E-03                    1_GWF-(1,11439)  2.12951960E-05                    1_GWF-(1,15107)
        360          8         10  2.08021381E-03                    1_GWF-(1,11460) -2.44517012E-05                    1_GWF-(1,11455)
        361          8         11 -1.53270686E-03                    1_GWF-(1,11460)  6.47572278E-06                    1_GWF-(1,14796)
        362          8         12  1.13711287E-03                    1_GWF-(1,11380)  1.91160275E-05                    1_GWF-(1,11455)
        363          8         13  2.09098467E-03                    1_GWF-(1,11460) -2.17547015E-05                    1_GWF-(1,11455)
        364          8         14 -2.02056186E-03                    1_GWF-(1,11460)  2.28596730E-05                    1_GWF-(1,15107)
        365          8         15  1.24209128E-03                    1_GWF-(1,11380) -2.27055290E-05                    1_GWF-(1,15107)
        366          8         16  1.02820919E-03                    1_GWF-(1,11460)  3.56354402E-05                    1_GWF-(1,15107)
        367          8         17 -1.56944501E-03                    1_GWF-(1,11460) -1.87971462E-05                    1_GWF-(1,15107)
        368          8         18  8.66755304E-04                    1_GWF-(1,11380)  1.67282902E-05                    1_GWF-(1,14798)
        369          8         19  8.16650261E-04                    1_GWF-(1,26622)  1.70192531E-05                    1_GWF-(1,15107)
        370          8         20 -1.08541980E-03                    1_GWF-(1,11460)  1.70264617E-05                    1_GWF-(1,14938)
        371          8         21  9.14211876E-04                    1_GWF-(1,11380)  2.36810184E-05                    1_GWF-(1,15107)
        372          8         22  8.59950312E-04                    1_GWF-(1,11460) -2.35811276E-05                    1_GWF-(1,15107)
        373          8         23 -1.05659742E-03                    1_GWF-(1,11460)  2.64856840E-05                    1_GWF-(1,15107)
        374          8         24  8.41100902E-04                    1_GWF-(1,11380)  1.25733596E-05                    1_GWF-(1,14938)
        375          8         25 -7.62785936E-04                    1_GWF-(1,26588)  8.26671234E-06                    1_GWF-(1,14801)
        376          8         26 -6.86137089E-04                    1_GWF-(1,11460)  1.49149093E-05                    1_GWF-(1,15107)
        377          8         27  8.75708517E-04                    1_GWF-(1,11380) -2.07319130E-05                    1_GWF-(1,15107)
        378          8         28  7.13410330E-04                    1_GWF-(1,11460)  3.18995381E-05                    1_GWF-(1,15107)
        379          8         29 -6.82585918E-04                    1_GWF-(1,11460)  1.59500217E-05                    1_GWF-(1,14938)
        380          8         30  8.39118934E-04                    1_GWF-(1,11380)  8.15994010E-06                    1_GWF-(1,10339)
        381          8         31  5.96980312E-04                    1_GWF-(1,26649)  8.48336047E-06                    1_GWF-(1,14801)
        382          8         32  5.98996690E-04                    1_GWF-(1,26487)  1.03018741E-05                    1_GWF-(1,14938)
        383          8         33  6.48696366E-04                    1_GWF-(1,11380)  1.20330706E-05                    1_GWF-(1,15107)
        384          8         34 -5.65457651E-04                    1_GWF-(1,26486) -7.58740315E-06                    1_GWF-(1,15107)
        385          8         35 -6.46931287E-04                    1_GWF-(1,11380)  1.17640027E-05                    1_GWF-(1,14801)
        386          8         36  6.37915343E-04                    1_GWF-(1,11380)  1.25634641E-05                    1_GWF-(1,14798)
        387          8         37 -5.45861293E-04                    1_GWF-(1,26544) -1.24479121E-05                    1_GWF-(1,15107)
        388          8         38 -6.33398737E-04                    1_GWF-(1,26422)  1.93031886E-05                    1_GWF-(1,15107)
        389          8         39  6.31193192E-04                    1_GWF-(1,11380)  1.63908794E-05                    1_GWF-(1,14938)
        390          8         40  5.76111205E-04                    1_GWF-(1,11460)  1.08674602E-05                    1_GWF-(1,15107)
        391          8         41 -4.48735566E-04                    1_GWF-(1,11460)  7.77687399E-06                    1_GWF-(1,15109)
        392          8         42  5.49611740E-04                    1_GWF-(1,11380)  1.02224592E-05                    1_GWF-(1,15107)
        393          8         43  4.50173496E-04                    1_GWF-(1,11460)  9.17742750E-06                    1_GWF-(1,14798)
        394          8         44 -5.23667079E-04                    1_GWF-(1,11460) -9.52826852E-06                    1_GWF-(1,15107)
        395          8         45  4.48284213E-04                    1_GWF-(1,11380)  1.40215643E-05                    1_GWF-(1,15107)
        396          8         46 -4.56294002E-04                    1_GWF-(1,11380) -1.39981033E-05                    1_GWF-(1,15107)
        397          8         47 -4.79954059E-04                    1_GWF-(1,11460)  1.59776860E-05                    1_GWF-(1,15107)
        398          8         48  4.36240076E-04                    1_GWF-(1,16237)  1.54876268E-05                    1_GWF-(1,14938)
        399          8         49  4.19327937E-04                    1_GWF-(1,16230)  1.91828713E-05                    1_GWF-(1,15107)
        400          8         50 -5.51103858E-04                    1_GWF-(1,11460) -2.37186096E-05                    1_GWF-(1,15107)
        401          9          1  5.95152064E-04                    1_GWF-(1,11460)  1.88997485E-05                    1_GWF-(1,15107)
        402          9          2 -4.08973957E-04                    1_GWF-(1,16230)  1.35032979E-05                    1_GWF-(1,14938)
        403          9          3 -4.16891331E-04                    1_GWF-(1,16236) -1.05760357E-05                    1_GWF-(1,14938)
        404          9          4  4.84296332E-04                    1_GWF-(1,11460)  1.05870418E-05                    1_GWF-(1,14799)
        405          9          5 -3.66942921E-04                    1_GWF-(1,11460)  9.14064943E-06                    1_GWF-(1,15107)
        406          9          6 -2.86138729E-04                    1_GWF-(1,20228) -5.75070811E-06                    1_GWF-(1,15107)
        407          9          7  4.15473902E-04                    1_GWF-(1,11460)  8.88128781E-06                    1_GWF-(1,14799)
        408          9          8 -3.45528846E-04                    1_GWF-(1,11460)  8.13470914E-06                    1_GWF-(1,15107)
        409          9          9 -3.07124414E-04                    1_GWF-(1,26622)  5.30197630E-06                    1_GWF-(1,14802)
        410          9         10  3.13436095E-04                    1_GWF-(1,11460)  3.62675276E-06                    1_GWF-(1,14932)
        411          9         11  2.91719483E-04                    1_GWF-(1,26487)  6.27099727E-06                    1_GWF-(1,15107)
        412          9         12  2.98595147E-04                    1_GWF-(1,26486)  7.10220809E-06                    1_GWF-(1,14938)
        413          9         13  3.30510616E-04                    1_GWF-(1,11460)  9.02753506E-06                    1_GWF-(1,15107)
        414          9         14  2.79409134E-04                    1_GWF-(1,26422)  8.03073437E-06                    1_GWF-(1,14938)
        415          9         15  2.52498468E-04                    1_GWF-(1,26350)  1.11583854E-05                    1_GWF-(1,15107)
        416          9         16  2.58736189E-04                    1_GWF-(1,26422) -6.89235588E-06                    1_GWF-(1,15107)
        417          9         17 -2.48364890E-04                    1_GWF-(1,26422)  5.23199925E-06                    1_GWF-(1,14801)
        418          9         18  2.33996513E-04                    1_GWF-(1,26422)  4.74115970E-06                    1_GWF-(1,14798)
        419          9         19 -1.98955315E-04                     1_GWF-(1,8188) -6.01975434E-06                    1_GWF-(1,15107)
        420          9         20 -2.91092308E-04                    1_GWF-(1,26649)  7.10502797E-06                    1_GWF-(1,15107)
        421          9         21 -2.99655713E-04                    1_GWF-(1,26622)  6.66461920E-06                    1_GWF-(1,14938)
        422          9         22 -3.08381357E-04                    1_GWF-(1,26649)  4.76444162E-06                    1_GWF-(1,15107)
        423          9         23 -2.59129115E-04                    1_GWF-(1,26544)  5.42760349E-06                    1_GWF-(1,15107)
        424          9         24 -2.62932161E-04                    1_GWF-(1,26486) -6.86268106E-06                    1_GWF-(1,15107)
        425          9         25  2.42686522E-04                    1_GWF-(1,11460)  8.85287324E-06                    1_GWF-(1,15107)
        426          9         26  2.15788570E-04                     1_GWF-(1,8339)  5.51597663E-06                    1_GWF-(1,14938)
        427          9         27 -1.95891984E-04                    1_GWF-(1,11460)  5.63373714E-06                    1_GWF-(1,15107)
        428          9         28  2.36886727E-04                    1_GWF-(1,11460)  5.62623097E-06                    1_GWF-(1,14798)
        429          9         29  2.03414587E-04                    1_GWF-(1,26420) -5.54703423E-06                    1_GWF-(1,15107)
        430          9         30 -2.65899613E-04                    1_GWF-(1,11460)  6.48026529E-06                    1_GWF-(1,15107)
        431          9         31  2.76063063E-04                    1_GWF-(1,11460)  5.50746194E-06                    1_GWF-(1,14938)
        432          9         32 -1.91861335E-04                    1_GWF-(1,24679)  6.44800845E-06                    1_GWF-(1,15107)
        433          9         33 -2.34466287E-04                    1_GWF-(1,11460)  3.28989489E-06                    1_GWF-(1,14796)
        434          9         34  2.53421199E-04                    1_GWF-(1,11460)  3.76151504E-06                    1_GWF-(1,14938)
        435          9         35 -2.32410241E-04                    1_GWF-(1,26665)  7.22375023E-06                    1_GWF-(1,15107)
        436          9         36 -2.90243175E-04                    1_GWF-(1,11460) -5.83548553E-06                    1_GWF-(1,15107)
        437          9         37  3.35428714E-04                    1_GWF-(1,11460)  6.57120131E-06                    1_GWF-(1,15107)
        438          9         38 -1.99934172E-04                    1_GWF-(1,24313) -4.73737897E-06                    1_GWF-(1,15107)
        439          9         39 -1.73864526E-04                    1_GWF-(1,24586)  5.64523119E-06                    1_GWF-(1,15107)
        440          9         40  3.18055104E-04                    1_GWF-(1,11460) -4.72350044E-06                    1_GWF-(1,15107)
        441          9         41 -2.68027512E-04                    1_GWF-(1,11460)  3.47577315E-06                    1_GWF-(1,14799)
        442          9         42 -2.77328963E-04                    1_GWF-(1,11439)  2.66303343E-06                    1_GWF-(1,14802)
        443          9         43  1.82219965E-04                    1_GWF-(1,11439) -4.38310508E-06                    1_GWF-(1,11455)
        444          9         44 -2.05936734E-04                    1_GWF-(1,11460)  4.37490730E-06                    1_GWF-(1,11455)
        445          9         45 -3.74914222E-04                    1_GWF-(1,11439)  3.09733476E-06                    1_GWF-(1,14938)
        446          9         46  4.19464685E-04                    1_GWF-(1,11439)  5.81589025E-06                    1_GWF-(1,15107)
        447          9         47  2.06457157E-04                    1_GWF-(1,15167)  6.20395805E-06                    1_GWF-(1,11455)
        448          9         48 -2.55112743E-04                    1_GWF-(1,11460)  6.97280549E-06                    1_GWF-(1,15107)
        449          9         49  2.12304461E-04                    1_GWF-(1,11439) -4.09317763E-06                    1_GWF-(1,11455)
        450          9         50  3.78967229E-04                    1_GWF-(1,11460)  6.53770758E-06                    1_GWF-(1,11455)
        451         10          1 -3.05293434E-04                    1_GWF-(1,11460) -2.59330830E-06                    1_GWF-(1,11455)
        452         10          2 -1.69106383E-04                    1_GWF-(1,11439) -5.01977699E-06                    1_GWF-(1,11455)
        453         10          3  3.07112044E-04                    1_GWF-(1,11460)  6.25922459E-06                    1_GWF-(1,11455)
        454         10          4  2.78756442E-04                    1_GWF-(1,11439) -2.62029573E-06                    1_GWF-(1,11455)
        455         10          5 -3.53907764E-04                    1_GWF-(1,11439)  2.32172008E-06                    1_GWF-(1,15107)
        456         10          6  1.54176598E-04                    1_GWF-(1,11439)  4.69145024E-06                    1_GWF-(1,11455)
        457         10          7 -1.66018986E-04                    1_GWF-(1,11380) -3.16245011E-06                    1_GWF-(1,11455)
        458         10          8 -1.94338959E-04                    1_GWF-(1,11439)  2.08147214E-06                    1_GWF-(1,15939)
        459         10          9  1.65789353E-04                    1_GWF-(1,11439)  3.17684281E-06                    1_GWF-(1,11455)
        460         10         10  1.55545552E-04                    1_GWF-(1,11460) -3.28061128E-06                    1_GWF-(1,11455)
        461         10         11  1.07568472E-04                    1_GWF-(1,24349)  1.15620041E-06                    1_GWF-(1,14796)
        462         10         12  1.09857142E-04                    1_GWF-(1,24313)  1.93403582E-06                    1_GWF-(1,11455)
[...]
        568         12         18  1.17442693E-05                    1_GWF-(1,24703)  2.74856333E-07                    1_GWF-(1,14796)
        569         12         19 -1.09715521E-05                    1_GWF-(1,11380) -2.77647567E-07                    1_GWF-(1,11455)
        570         12         20 -1.07466229E-05                    1_GWF-(1,26422)  2.63420243E-07                    1_GWF-(1,14801)
        571         12         21  9.43044943E-06                    1_GWF-(1,24961)  2.07833387E-07                    1_GWF-(1,11455)
        572         12         22 -9.21728719E-06                    1_GWF-(1,11380) -2.51078247E-07                    1_GWF-(1,11455)
        573         12         23 -8.62540660E-06                    1_GWF-(1,26649)  2.44496043E-07                    1_GWF-(1,14801)
        574         12         24 -1.06824144E-05                    1_GWF-(1,26622)  2.09328008E-07                    1_GWF-(1,11455)
        575         12         25 -1.01678847E-05                     1_GWF-(1,8339) -2.08181764E-07                    1_GWF-(1,11455)
        576         12         26  1.19373671E-05                    1_GWF-(1,26486)  1.72595384E-07                    1_GWF-(1,14801)
        577         12         27  9.03416731E-06                    1_GWF-(1,26544)  2.62505402E-07                    1_GWF-(1,11455)
        578         12         28 -1.04977742E-05                    1_GWF-(1,11380) -1.86169065E-07                    1_GWF-(1,11455)
        579         12         29  9.31005985E-06                    1_GWF-(1,26666)  1.80756635E-07                    1_GWF-(1,15939)
        580         12         30  1.17694240E-05                    1_GWF-(1,26665)  2.57078056E-07                    1_GWF-(1,11455)
        581         12         31 -9.85906267E-06                    1_GWF-(1,11380)  1.45354373E-07                    1_GWF-(1,14802)
        582         12         32 -6.91956776E-06                    1_GWF-(1,26422)  1.84947573E-07                    1_GWF-(1,15939)
        583         12         33 -7.33352346E-06                    1_GWF-(1,15167)  2.57244806E-07                    1_GWF-(1,11455)
        584         12         34 -9.48284881E-06                    1_GWF-(1,11380)  2.18033438E-07                    1_GWF-(1,15939)
        585         12         35  5.71323762E-06                    1_GWF-(1,15167) -1.90277502E-07                    1_GWF-(1,15939)
        586         12         36 -7.49819260E-06                    1_GWF-(1,26486)  2.28655475E-07                    1_GWF-(1,11455)
        587         12         37 -9.20630398E-06                    1_GWF-(1,26623) -1.41681560E-07                    1_GWF-(1,11455)
        588         12         38 -8.80583181E-06                    1_GWF-(1,26543) -1.45999044E-07                    1_GWF-(1,11455)
        589         12         39 -7.51903784E-06                    1_GWF-(1,26588)  2.52906370E-07                    1_GWF-(1,11455)
        590         12         40 -7.58778615E-06                    1_GWF-(1,11380)  1.36136349E-07                    1_GWF-(1,14799)
        591         12         41 -6.40179741E-06                    1_GWF-(1,20584) -1.36980223E-07                    1_GWF-(1,11455)
        592         12         42 -6.48100176E-06                    1_GWF-(1,15167)  2.29192781E-07                    1_GWF-(1,11455)
        593         12         43 -6.91429020E-06                    1_GWF-(1,11380)  1.62696111E-07                    1_GWF-(1,14799)
        594         12         44  4.75077219E-06                    1_GWF-(1,11380)  8.15791451E-08                    1_GWF-(1,14838)
        595         12         45  4.52850980E-06                    1_GWF-(1,16620)  1.91319094E-07                    1_GWF-(1,11455)
        596         12         46 -5.82780010E-06                    1_GWF-(1,11380) -1.94799132E-07                    1_GWF-(1,11455)
        597         12         47  5.54421780E-06                    1_GWF-(1,11380)  1.55787067E-07                    1_GWF-(1,14799)
        598         12         48  6.14466129E-06                    1_GWF-(1,16241)  1.34455325E-07                    1_GWF-(1,11455)
        599         12         49  6.65299927E-06                    1_GWF-(1,26543) -1.76064126E-07                    1_GWF-(1,11455)
        600         12         50  8.39836337E-06                    1_GWF-(1,26588)  7.27539503E-08                    1_GWF-(1,14830)
        601         13          1 -9.87361871E-06                    1_GWF-(1,26588) -6.20301087E-08                    1_GWF-(1,26588)
        602         13          2 -8.14257073E-06                    1_GWF-(1,26543)  7.46562315E-08                    1_GWF-(1,15107)
        603         13          3 -6.41316611E-06                    1_GWF-(1,16239)  1.14921149E-07                    1_GWF-(1,14799)
        604         13          4 -6.93680806E-06                    1_GWF-(1,11380)  1.12682349E-07                    1_GWF-(1,14801)
        605         13          5 -5.45514917E-06                    1_GWF-(1,20230)  8.69736039E-08                    1_GWF-(1,14832)
        606         13          6 -4.31075925E-06                    1_GWF-(1,20228)  8.73432266E-08                    1_GWF-(1,15919)
        607         13          7 -6.14946525E-06                    1_GWF-(1,11380)  1.19888828E-07                    1_GWF-(1,14799)
        608         13          8  4.44326473E-06                    1_GWF-(1,11380)  1.00909452E-07                    1_GWF-(1,14799)
        609         13          9  5.95469033E-06                    1_GWF-(1,26486)  7.37399018E-08                    1_GWF-(1,14802)
        610         13         10  7.22661502E-06                    1_GWF-(1,26487) -6.03252954E-08                    1_GWF-(1,15919)
        611         13         11  5.32052730E-06                    1_GWF-(1,26486)  9.44646689E-08                    1_GWF-(1,14799)
        612         13         12  3.65096120E-06                    1_GWF-(1,11380)  8.04681311E-08                    1_GWF-(1,14826)
        613         13         13 -5.89185988E-06                    1_GWF-(1,11380) -8.31706018E-08                    1_GWF-(1,15939)
        614         13         14  4.21628617E-06                    1_GWF-(1,26588)  1.02080224E-07                    1_GWF-(1,14801)
        615         13         15  4.46670022E-06                    1_GWF-(1,26666)  8.99710882E-08                    1_GWF-(1,14799)
        616         13         16  5.15182898E-06                    1_GWF-(1,26665)  7.06078114E-08                    1_GWF-(1,14796)
        617         13         17 -4.00753149E-06                    1_GWF-(1,15167)  8.83357753E-08                    1_GWF-(1,14801)
        618         13         18 -4.05434662E-06                    1_GWF-(1,26622)  8.16653144E-08                    1_GWF-(1,14799)
        619         13         19 -4.53418339E-06                    1_GWF-(1,26623)  6.67206773E-08                    1_GWF-(1,14824)
        620         13         20 -5.22172398E-06                    1_GWF-(1,26622)  5.49342499E-08                    1_GWF-(1,10342)
        621         13         21 -4.35333506E-06                    1_GWF-(1,26623)  7.17485114E-08                    1_GWF-(1,14799)
        622         13         22 -4.14477688E-06                    1_GWF-(1,11380)  9.36336920E-08                    1_GWF-(1,15939)
        623         13         23 -2.98508036E-06                    1_GWF-(1,15167) -8.44438383E-08                    1_GWF-(1,15939)
        624         13         24  3.38782902E-06                    1_GWF-(1,11380)  1.01117067E-07                    1_GWF-(1,15939)
        625         13         25 -4.21904887E-06                    1_GWF-(1,11380) -6.90769663E-08                    1_GWF-(1,15939)
        626         13         26  4.09208164E-06                     1_GWF-(1,8339)  5.48720962E-08                    1_GWF-(1,14824)
        627         13         27  3.29147611E-06                     1_GWF-(1,8444)  7.65860501E-08                    1_GWF-(1,14801)
        628         13         28 -3.52307239E-06                    1_GWF-(1,11380)  9.23671710E-08                    1_GWF-(1,14799)
        629         13         29 -2.90903252E-06                    1_GWF-(1,24428)  6.52598160E-08                    1_GWF-(1,14824)
        630         13         30 -3.30920620E-06                    1_GWF-(1,26588)  6.87799944E-08                    1_GWF-(1,14802)
        631         13         31  3.33330560E-06                    1_GWF-(1,26588)  8.88322137E-08                    1_GWF-(1,14801)
        632         13         32 -2.98105201E-06                    1_GWF-(1,24754)  8.18683964E-08                    1_GWF-(1,14798)
        633         13         33 -3.23373438E-06                    1_GWF-(1,24678)  6.67273716E-08                    1_GWF-(1,14799)
        634         13         34 -3.59575239E-06                    1_GWF-(1,11380)  7.38926141E-08                    1_GWF-(1,14801)
        635         13         35 -3.11051852E-06                    1_GWF-(1,24688) -6.69896781E-08                    1_GWF-(1,15939)
        636         13         36 -2.89277325E-06                    1_GWF-(1,21486)  6.95868740E-08                    1_GWF-(1,15939)
        637         13         37 -3.74207379E-06                    1_GWF-(1,11380)  5.16601431E-08                    1_GWF-(1,14801)
        638         13         38 -2.91653553E-06                    1_GWF-(1,24586) -3.11689810E-08                    1_GWF-(1,11455)
        639         13         39 -3.22685807E-06                    1_GWF-(1,26486)  4.04304221E-08                    1_GWF-(1,11455)
        640         13         40 -3.50243860E-06                    1_GWF-(1,26487)  3.52181005E-08                    1_GWF-(1,14823)
        641         13         41 -2.99837164E-06                    1_GWF-(1,26420)  7.32069487E-08                    1_GWF-(1,14801)
        642         13         42  2.50122333E-06                    1_GWF-(1,11380)  5.26326354E-08                    1_GWF-(1,14824)
        643         13         43 -3.88847759E-06                    1_GWF-(1,11380)  3.61638800E-08                    1_GWF-(1,14823)
        644         13         44 -2.90485124E-06                    1_GWF-(1,11460)  4.72166718E-08                    1_GWF-(1,14801)
        645         13         45 -3.63732502E-06                    1_GWF-(1,11439)  4.61306626E-08                    1_GWF-(1,11455)
        646         13         46 -3.52379232E-06                    1_GWF-(1,11380)  6.68138384E-08                    1_GWF-(1,15939)
        647         13         47  3.03016466E-06                    1_GWF-(1,26649)  8.42847129E-08                    1_GWF-(1,14801)
        648         13         48 -3.55361805E-06                    1_GWF-(1,11439)  5.78862352E-08                    1_GWF-(1,14801)
        649         13         49 -3.06175679E-06                    1_GWF-(1,11380)  4.83314423E-08                    1_GWF-(1,14825)
        650         13         50  3.11111142E-06                    1_GWF-(1,11439) -6.25210739E-08                    1_GWF-(1,15939)
        651         14          1 -2.65655828E-06                    1_GWF-(1,11439)  6.96409596E-08                    1_GWF-(1,15939)
        652         14          2 -2.47158090E-06                    1_GWF-(1,26623)  4.46255651E-08                    1_GWF-(1,14799)
        653         14          3  2.83553034E-06                    1_GWF-(1,11439) -7.26344935E-08                    1_GWF-(1,11455)
        654         14          4  3.65590391E-06                    1_GWF-(1,11460)  5.32411037E-08                    1_GWF-(1,15939)
        655         14          5 -1.95193082E-06                    1_GWF-(1,11482)  8.03855372E-08                    1_GWF-(1,11455)
        656         14          6 -4.25258254E-06                    1_GWF-(1,11460) -7.71551143E-08                    1_GWF-(1,11455)
        657         14          7  4.49261833E-06                    1_GWF-(1,11460)  3.49690920E-08                    1_GWF-(1,14801)
        658         14          8  1.89302351E-06                    1_GWF-(1,20932)  7.58653458E-08                    1_GWF-(1,11455)
        659         14          9 -2.49552302E-06                    1_GWF-(1,11460) -8.05900054E-08                    1_GWF-(1,11455)
        660         14         10  2.61804303E-06                    1_GWF-(1,11460)  3.95208597E-08                    1_GWF-(1,14823)
        661         14         11  2.22943716E-06                    1_GWF-(1,26487)  6.36559030E-08                    1_GWF-(1,11455)
        662         14         12 -2.02281723E-06                    1_GWF-(1,11460) -4.82032905E-08                    1_GWF-(1,11455)
        663         14         13  1.92634068E-06                    1_GWF-(1,24313)  3.37325183E-08                    1_GWF-(1,14823)
        664         14         14  1.80444004E-06                    1_GWF-(1,11439)  6.04650480E-08                    1_GWF-(1,11455)
        665         14         15  1.64929930E-06                    1_GWF-(1,21426) -3.71664809E-08                    1_GWF-(1,11455)
        666         14         16  1.52573641E-06                    1_GWF-(1,24684)  3.51768054E-08                    1_GWF-(1,14823)
        667         14         17  1.58627758E-06                    1_GWF-(1,24687)  5.44394023E-08                    1_GWF-(1,11455)
        668         14         18  1.44826808E-06                    1_GWF-(1,24703)  4.21884145E-08                    1_GWF-(1,14798)
        669         14         19  1.34715815E-06                    1_GWF-(1,24755)  2.83680894E-08                    1_GWF-(1,14799)
        670         14         20  1.23924789E-06                    1_GWF-(1,24751)  4.45832701E-08                    1_GWF-(1,11455)
        671         14         21  1.16201304E-06                    1_GWF-(1,24961)  3.25248607E-08                    1_GWF-(1,14824)
        672         14         22  1.01068609E-06                    1_GWF-(1,24961)  3.44685725E-08                    1_GWF-(1,14799)
        673         14         23 -1.30039662E-06                    1_GWF-(1,26665)  4.27188134E-08                    1_GWF-(1,11455)
        674         14         24 -1.11447495E-06                     1_GWF-(1,8474) -2.77094887E-08                    1_GWF-(1,11455)
        675         14         25 -1.29737285E-06                     1_GWF-(1,8444)  2.34128595E-08                    1_GWF-(1,14799)
        676         14         26 -1.20529700E-06                     1_GWF-(1,8333)  4.86224073E-08                    1_GWF-(1,11455)
        677         14         27  1.29191946E-06                    1_GWF-(1,26350) -3.54433117E-08                    1_GWF-(1,11455)
        678         14         28  1.26661151E-06                    1_GWF-(1,26422)  2.03625883E-08                    1_GWF-(1,14798)
        679         14         29  1.23313439E-06                    1_GWF-(1,26420)  4.84354790E-08                    1_GWF-(1,11455)
        680         14         30  1.12645056E-06                    1_GWF-(1,26487)  2.81932908E-08                    1_GWF-(1,14801)
        681         14         31  1.43109894E-06                    1_GWF-(1,26486) -2.62193393E-08                    1_GWF-(1,11455)
        682         14         32  1.15817340E-06                    1_GWF-(1,26544)  4.35591781E-08                    1_GWF-(1,11455)
        683         14         33 -9.61199796E-07                    1_GWF-(1,26544)  2.96141138E-08                    1_GWF-(1,14801)
        684         15          1 -9.03226871E-07                    1_GWF-(1,26486)  1.74353414E-08                    1_GWF-(1,14798)
 --------------------------------------------------------------------------------------------------------------------------------------


 UBDSV1 SAVING     FLOW-JA-FACE ON UNIT   1020 AT TIME STEP      1, STRESS PERIOD      1
 UBDSV06 SAVING       DATA-SPDIS IN MODEL ML               PACKAGE NPF             CONNECTED TO MODEL ML               PACKAGE NPF              ON UNIT   1020 AT TIME STEP      1, STRESS PERIOD      1
 UBDSV06 SAVING              WEL IN MODEL ML               PACKAGE ML              CONNECTED TO MODEL ML               PACKAGE WEL_0            ON UNIT   1020 AT TIME STEP      1, STRESS PERIOD      1
 UBDSV06 SAVING              DRN IN MODEL ML               PACKAGE ML              CONNECTED TO MODEL ML               PACKAGE DRN_0            ON UNIT   1020 AT TIME STEP      1, STRESS PERIOD      1
 UBDSV06 SAVING              RIV IN MODEL ML               PACKAGE ML              CONNECTED TO MODEL ML               PACKAGE RIV_0            ON UNIT   1020 AT TIME STEP      1, STRESS PERIOD      1
 UBDSV06 SAVING              GHB IN MODEL ML               PACKAGE ML              CONNECTED TO MODEL ML               PACKAGE GHB_0            ON UNIT   1020 AT TIME STEP      1, STRESS PERIOD      1
 UBDSV06 SAVING              RCH IN MODEL ML               PACKAGE ML              CONNECTED TO MODEL ML               PACKAGE RCHA_0           ON UNIT   1020 AT TIME STEP      1, STRESS PERIOD      1

 HEAD WILL BE SAVED ON UNIT 1021 AT END OF TIME STEP    1, STRESS PERIOD    1


  VOLUME BUDGET FOR ENTIRE MODEL AT END OF TIME STEP    1, STRESS PERIOD   1
  ---------------------------------------------------------------------------------------------------

     CUMULATIVE VOLUME      L**3       RATES FOR THIS TIME STEP      L**3/T          PACKAGE NAME    
     ------------------                 ------------------------                     ----------------

           IN:                                      IN:
           ---                                      ---
                 WEL =           0.0000                   WEL =           0.0000     WEL_0           
                 DRN =           0.0000                   DRN =           0.0000     DRN_0           
                 RIV =           8.9407                   RIV =           0.9934     RIV_0           
                 GHB =          24.8617                   GHB =           2.7624     GHB_0           
                 RCH =           2.3644                   RCH =           0.2627     RCHA_0          

            TOTAL IN =          36.1668              TOTAL IN =           4.0185

          OUT:                                     OUT:
          ----                                     ----
                 WEL =           1.4412                   WEL =           0.1601     WEL_0           
                 DRN =           1.6989                   DRN =           0.1888     DRN_0           
                 RIV =          32.9807                   RIV =           3.6645     RIV_0           
                 GHB =       4.5989E-02                   GHB =       5.1099E-03     GHB_0           
                 RCH =           0.0000                   RCH =           0.0000     RCHA_0          

           TOTAL OUT =          36.1668             TOTAL OUT =           4.0185

            IN - OUT =      -2.1927E-05              IN - OUT =      -2.4363E-06

 PERCENT DISCREPANCY =          -0.00     PERCENT DISCREPANCY =          -0.00




         TIME SUMMARY AT END OF TIME STEP    1 IN STRESS PERIOD    1
                    SECONDS     MINUTES      HOURS       DAYS        YEARS
                    -----------------------------------------------------------
   TIME STEP LENGTH  9.0000     0.15000     2.50000E-03 1.04167E-04 2.85193E-07
 STRESS PERIOD TIME  9.0000     0.15000     2.50000E-03 1.04167E-04 2.85193E-07
         TOTAL TIME  9.0000     0.15000     2.50000E-03 1.04167E-04 2.85193E-07


end timestep

