                                   MODFLOW 6
                U.S. GEOLOGICAL SURVEY MODULAR HYDROLOGIC MODEL
                          GROUNDWATER FLOW MODEL (GWF)
                            VERSION 6.2.2 07/30/2021

   MODFLOW 6 compiled Jul 31 2021 14:22:53 with IFORT compiler (ver. 19.10.3)

This software has been approved for release by the U.S. Geological 
Survey (USGS). Although the software has been subjected to rigorous 
review, the USGS reserves the right to update the software as needed 
pursuant to further analysis and review. No warranty, expressed or 
implied, is made by the USGS or the U.S. Government as to the 
functionality of the software and related material nor shall the 
fact of release constitute any such warranty. Furthermore, the 
software is released on condition that neither the USGS nor the U.S. 
Government shall be held liable for any damages resulting from its 
authorized or unauthorized use. Also refer to the USGS Water 
Resources Software User Rights Notice for complete use, copyright, 
and distribution information.


System command used to initiate simulation:
mf6

MODFLOW was compiled using uniform precision.

Real Variables
  KIND: 8
  TINY (smallest non-zero value):    2.225074-308
  HUGE (largest value):    1.797693+308
  PRECISION: 15
  BIT SIZE: 64

Integer Variables
  KIND: 4
  HUGE (largest value): 2147483647
  BIT SIZE: 32

Long Integer Variables
  KIND: 8
  HUGE (largest value): 9223372036854775807
  BIT SIZE: 64

Logical Variables
  KIND: 4
  BIT SIZE: 32
 

 OPENED ./ml.disv
 FILE TYPE:DISV6                  UNIT 1005   STATUS:OLD                 
 FORMAT:FORMATTED              ACCESS:SEQUENTIAL          
 ACTION:READ                


 OPENED ./ml.ic
 FILE TYPE:IC6                    UNIT 1006   STATUS:OLD                 
 FORMAT:FORMATTED              ACCESS:SEQUENTIAL          
 ACTION:READ                


 OPENED ./ml.npf
 FILE TYPE:NPF6                   UNIT 1007   STATUS:OLD                 
 FORMAT:FORMATTED              ACCESS:SEQUENTIAL          
 ACTION:READ                


 OPENED ./ml.ghb
 FILE TYPE:GHB6                   UNIT 1008   STATUS:OLD                 
 FORMAT:FORMATTED              ACCESS:SEQUENTIAL          
 ACTION:READ                


 OPENED ./ml.rcha
 FILE TYPE:RCH6                   UNIT 1009   STATUS:OLD                 
 FORMAT:FORMATTED              ACCESS:SEQUENTIAL          
 ACTION:READ                


 OPENED ./ml.obs
 FILE TYPE:OBS6                   UNIT 1010   STATUS:OLD                 
 FORMAT:FORMATTED              ACCESS:SEQUENTIAL          
 ACTION:READ                


 OPENED ./ml.oc
 FILE TYPE:OC6                    UNIT 1011   STATUS:OLD                 
 FORMAT:FORMATTED              ACCESS:SEQUENTIAL          
 ACTION:READ                


 OPENED ml.wel
 FILE TYPE:WEL6                   UNIT 1012   STATUS:OLD                 
 FORMAT:FORMATTED              ACCESS:SEQUENTIAL          
 ACTION:READ                


 OPENED ml.drn
 FILE TYPE:DRN6                   UNIT 1013   STATUS:OLD                 
 FORMAT:FORMATTED              ACCESS:SEQUENTIAL          
 ACTION:READ                


 OPENED ml.riv
 FILE TYPE:RIV6                   UNIT 1014   STATUS:OLD                 
 FORMAT:FORMATTED              ACCESS:SEQUENTIAL          
 ACTION:READ                


 DISV -- VERTEX GRID DISCRETIZATION PACKAGE, VERSION 1 : 12/23/2015 - INPUT READ FROM UNIT 1005


 # File generated by Flopy version 3.3.5 on 06/01/2022 at 13:19:11.

 PROCESSING DISCRETIZATION OPTIONS
    MODEL LENGTH UNIT IS METERS
    XORIGIN SPECIFIED AS     405575.681000000    
    YORIGIN SPECIFIED AS     6423306.54000000    
 END OF DISCRETIZATION OPTIONS

 PROCESSING DISCRETIZATION DIMENSIONS
   NLAY = 1
   NCPL = 26674
   NVERT = 27090
 END OF DISCRETIZATION DIMENSIONS

 PROCESSING GRIDDATA
 END PROCESSING GRIDDATA

 PROCESSING VERTICES
   SUCCESSFULLY READ 27090 (X,Y) COORDINATES
   MINIMUM X COORDINATE =     405575.681000000    
   MAXIMUM X COORDINATE =     413975.681000000    
   MINIMUM Y COORDINATE =     6423306.54000000    
   MAXIMUM Y COORDINATE =     6432506.54000000    
 END PROCESSING VERTICES

 PROCESSING CELL2D
   SUCCESSFULLY READ 26674 CELL2D INFORMATION ENTRIES
   MINIMUM X CELL CENTER =     405675.681000000    
   MAXIMUM X CELL CENTER =     413875.681000000    
   MINIMUM Y CELL CENTER =     6423406.54000000    
   MAXIMUM Y CELL CENTER =     6432406.54000000    
   MAXIMUM NUMBER OF CELL2D VERTICES IS 6 FOR CELL 208
 END PROCESSING VERTICES

 NPF -- NODE PROPERTY FLOW PACKAGE, VERSION 1, 3/30/2015 INPUT READ FROM UNIT 1007


 # File generated by Flopy version 3.3.5 on 06/01/2022 at 13:19:14.
 PROCESSING NPF OPTIONS
    CELL-BY-CELL FLOW INFORMATION WILL BE SAVED TO BINARY FILE WHENEVER ICBCFL IS NOT ZERO.
    SPECIFIC DISCHARGE WILL BE CALCULATED AT CELL CENTERS AND WRITTEN TO DATA-SPDIS IN BUDGET FILE WHEN REQUESTED.
 END OF NPF OPTIONS

 WEL   -- WEL PACKAGE, VERSION 8, 2/22/2014 INPUT READ FROM UNIT 1012
 # File generated by Flopy version 3.3.5 on 06/01/2022 at 13:19:14.

 PROCESSING WEL OPTIONS
    WEL BOUNDARIES HAVE NAMES IN LAST COLUMN.
    FLOWS WILL BE SAVED TO BUDGET FILE SPECIFIED IN OUTPUT CONTROL
 END OF WEL OPTIONS

 PROCESSING WEL DIMENSIONS
    MAXBOUND =       9
 END OF WEL DIMENSIONS

 DRN   -- DRN PACKAGE, VERSION 8, 2/22/2014 INPUT READ FROM UNIT 1013
 # File generated by Flopy version 3.3.5 on 06/01/2022 at 13:19:14.

 PROCESSING DRN OPTIONS
    DRN BOUNDARIES HAVE NAMES IN LAST COLUMN.
    FLOWS WILL BE SAVED TO BUDGET FILE SPECIFIED IN OUTPUT CONTROL

 OPENED ml.drn.obs
 FILE TYPE:OBS   UNIT 1016   STATUS:OLD                 
 FORMAT:FORMATTED              ACCESS:SEQUENTIAL          
 ACTION:READ                

 END OF DRN OPTIONS

 PROCESSING DRN DIMENSIONS
    MAXBOUND =     133
 END OF DRN DIMENSIONS

 RIV   -- RIV PACKAGE, VERSION 8, 2/22/2014 INPUT READ FROM UNIT 1014
 # File generated by Flopy version 3.3.5 on 06/01/2022 at 13:19:14.

 PROCESSING RIV OPTIONS
    AUXILIARY RIV VARIABLE: FID             
    RIV BOUNDARIES HAVE NAMES IN LAST COLUMN.
    FLOWS WILL BE SAVED TO BUDGET FILE SPECIFIED IN OUTPUT CONTROL
 END OF RIV OPTIONS

 PROCESSING RIV DIMENSIONS
    MAXBOUND =     794
 END OF RIV DIMENSIONS

 GHB   -- GHB PACKAGE, VERSION 8, 2/22/2014 INPUT READ FROM UNIT 1008
 # File generated by Flopy version 3.3.5 on 06/01/2022 at 13:19:14.

 PROCESSING GHB OPTIONS
    GHB BOUNDARIES HAVE NAMES IN LAST COLUMN.
    FLOWS WILL BE SAVED TO BUDGET FILE SPECIFIED IN OUTPUT CONTROL
 END OF GHB OPTIONS

 PROCESSING GHB DIMENSIONS
    MAXBOUND =     153
 END OF GHB DIMENSIONS

 RCH   -- RCH PACKAGE, VERSION 8, 2/22/2014 INPUT READ FROM UNIT 1009
 # File generated by Flopy version 3.3.5 on 06/01/2022 at 13:19:14.

 PROCESSING RCH OPTIONS
    RECHARGE INPUT WILL BE READ AS ARRAY(S).
    FLOWS WILL BE SAVED TO BUDGET FILE SPECIFIED IN OUTPUT CONTROL
 END OF RCH OPTIONS

 IC -- INITIAL CONDITIONS PACKAGE, VERSION 8, 3/28/2015 INPUT READ FROM UNIT 1006
 # File generated by Flopy version 3.3.5 on 06/01/2022 at 13:19:14.
 PROCESSING GRIDDATA

     INITIAL HEAD =   15.00000    
 END PROCESSING GRIDDATA
 PROCESSING GRIDDATA

                ICELLTYPE = 0

 OPENED ../com_ext/k.txt
 FILE TYPE:OPEN/CLOSE   UNIT 1017   STATUS:OLD                 
 FORMAT:FORMATTED              ACCESS:SEQUENTIAL          
 ACTION:READ                

 K33 not provided.  Assuming K33 = K.
 K22 not provided.  Assuming K22 = K.
 END PROCESSING GRIDDATA

The observation utility is active for "ML"
 # File generated by Flopy version 3.3.5 on 06/01/2022 at 13:19:14.

Processing observation options:

Text output number of digits of precision set to: 10
The PRINT_INPUT option has been specified.


 OBSERVATIONS READ FROM FILE "ml.obs"
 ----------------------------------------------------------------------------------------------------------------------------------------------------------------------------------------------------------------------------
 NAME                                     TYPE                                       TIME         LOCATION DATA                              OUTPUT FILENAME                                                                 
 ----------------------------------------------------------------------------------------------------------------------------------------------------------------------------------------------------------------------------
 PRG                                      CONTINUOUS  HEAD                           ALL TIMES    "1 16523"                                  sim/hds.csv                                                                     
 P8                                       CONTINUOUS  HEAD                           ALL TIMES    "1 10323"                                  sim/hds.csv                                                                     
 P24                                      CONTINUOUS  HEAD                           ALL TIMES    "1 9594"                                   sim/hds.csv                                                                     
 P25                                      CONTINUOUS  HEAD                           ALL TIMES    "1 13966"                                  sim/hds.csv                                                                     
 P32                                      CONTINUOUS  HEAD                           ALL TIMES    "1 15787"                                  sim/hds.csv                                                                     
 P33                                      CONTINUOUS  HEAD                           ALL TIMES    "1 15825"                                  sim/hds.csv                                                                     
 PF                                       CONTINUOUS  HEAD                           ALL TIMES    "1 21048"                                  sim/hds.csv                                                                     
 PH                                       CONTINUOUS  HEAD                           ALL TIMES    "1 20781"                                  sim/hds.csv                                                                     
 PZHM1                                    CONTINUOUS  HEAD                           ALL TIMES    "1 14521"                                  sim/hds.csv                                                                     
 P26                                      CONTINUOUS  HEAD                           ALL TIMES    "1 13141"                                  sim/hds.csv                                                                     
 P27                                      CONTINUOUS  HEAD                           ALL TIMES    "1 8465"                                   sim/hds.csv                                                                     
 P28                                      CONTINUOUS  HEAD                           ALL TIMES    "1 8924"                                   sim/hds.csv                                                                     
 P29                                      CONTINUOUS  HEAD                           ALL TIMES    "1 4524"                                   sim/hds.csv                                                                     
 P30                                      CONTINUOUS  HEAD                           ALL TIMES    "1 5255"                                   sim/hds.csv                                                                     
 R20                                      CONTINUOUS  HEAD                           ALL TIMES    "1 10676"                                  sim/hds.csv                                                                     
 R21                                      CONTINUOUS  HEAD                           ALL TIMES    "1 10403"                                  sim/hds.csv                                                                     
 P34                                      CONTINUOUS  HEAD                           ALL TIMES    "1 15131"                                  sim/hds.csv                                                                     
 P37                                      CONTINUOUS  HEAD                           ALL TIMES    "1 15755"                                  sim/hds.csv                                                                     
 P38                                      CONTINUOUS  HEAD                           ALL TIMES    "1 15045"                                  sim/hds.csv                                                                     
 P39                                      CONTINUOUS  HEAD                           ALL TIMES    "1 9637"                                   sim/hds.csv                                                                     
 P40                                      CONTINUOUS  HEAD                           ALL TIMES    "1 9312"                                   sim/hds.csv                                                                     
 AP1                                      CONTINUOUS  HEAD                           ALL TIMES    "1 9702"                                   sim/hds.csv                                                                     
 RCK1                                     CONTINUOUS  HEAD                           ALL TIMES    "1 15900"                                  sim/hds.csv                                                                     
 RCK2                                     CONTINUOUS  HEAD                           ALL TIMES    "1 15199"                                  sim/hds.csv                                                                     
 P23                                      CONTINUOUS  HEAD                           ALL TIMES    "1 6409"                                   sim/hds.csv                                                                     
 ----------------------------------------------------------------------------------------------------------------------------------------------------------------------------------------------------------------------------


    BINARY GRID INFORMATION WILL BE WRITTEN TO:
      UNIT NUMBER: 1019
      FILE NAME: /srv/common/ptrack/case_study/pst/ml_09/./ml.disv.grb

 OPENED /srv/common/ptrack/case_study/pst/ml_09/./ml.disv.grb
 FILE TYPE:DATA(BINARY)   UNIT 1019   STATUS:REPLACE             
 FORMAT:UNFORMATTED            ACCESS:STREAM              
 ACTION:READWRITE           

      THE LAST TIME STEP WILL BE PRINTED
      THE LAST TIME STEP WILL BE PRINTED
 # File generated by Flopy version 3.3.5 on 06/01/2022 at 13:19:14.

 PROCESSING OC OPTIONS

    BUDGET INFORMATION WILL BE WRITTEN TO:
      UNIT NUMBER: 1020
      FILE NAME: ml.cbc

 OPENED ml.cbc
 FILE TYPE:DATA(BINARY)   UNIT 1020   STATUS:REPLACE             
 FORMAT:UNFORMATTED            ACCESS:STREAM              
 ACTION:READWRITE           

    HEAD INFORMATION WILL BE WRITTEN TO:
      UNIT NUMBER: 1021
      FILE NAME: ml.hds

 OPENED ml.hds
 FILE TYPE:DATA(BINARY)   UNIT 1021   STATUS:REPLACE             
 FORMAT:UNFORMATTED            ACCESS:STREAM              
 ACTION:READWRITE           

 END OF OC OPTIONS

The observation utility is active for "DRN_0"
 # File generated by Flopy version 3.3.5 on 06/01/2022 at 13:19:14.

Processing observation options:



start timestep kper="1" kstp="1" mode="normal"


 BEGIN READING OUTPUT CONTROL FOR STRESS PERIOD 1
      THE LAST TIME STEP WILL BE SAVED
      THE LAST TIME STEP WILL BE SAVED

 END READING OUTPUT CONTROL FOR STRESS PERIOD 1

 OPENED ext/wel_spd_1.txt
 FILE TYPE:OPEN/CLOSE   UNIT 1023   STATUS:OLD                 
 FORMAT:FORMATTED              ACCESS:SEQUENTIAL          
 ACTION:READ                


 OPENED ext/drn_spd_1.txt
 FILE TYPE:OPEN/CLOSE   UNIT 1024   STATUS:OLD                 
 FORMAT:FORMATTED              ACCESS:SEQUENTIAL          
 ACTION:READ                


 OPENED ext/riv_spd_1.txt
 FILE TYPE:OPEN/CLOSE   UNIT 1025   STATUS:OLD                 
 FORMAT:FORMATTED              ACCESS:SEQUENTIAL          
 ACTION:READ                


 OPENED ../com_ext/ghb_spd_1.txt
 FILE TYPE:OPEN/CLOSE   UNIT 1026   STATUS:OLD                 
 FORMAT:FORMATTED              ACCESS:SEQUENTIAL          
 ACTION:READ                


 OPENED ../com_ext/rech_spd_1.txt
 FILE TYPE:OPEN/CLOSE   UNIT 1027   STATUS:OLD                 
 FORMAT:FORMATTED              ACCESS:SEQUENTIAL          
 ACTION:READ                


 SLN_1 INNER ITERATION SUMMARY
 --------------------------------------------------------------------------------------------------------------------------------------
      TOTAL      OUTER      INNER                                                            MAXIMUM                                   
  ITERATION  ITERATION  ITERATION  MAXIMUM CHANGE      MAXIMUM CHANGE MODEL-(CELLID)        RESIDUAL    MAXIMUM RESIDUAL MODEL-(CELLID)
 --------------------------------------------------------------------------------------------------------------------------------------
          1          1          1      -11.760780                    1_GWF-(1,12785)      0.58881519                    1_GWF-(1,15911)
          2          1          2       5.9145068                    1_GWF-(1,26601)      0.39573635                    1_GWF-(1,15921)
          3          1          3       6.0568613                    1_GWF-(1,26565)      0.35193080                    1_GWF-(1,15940)
          4          1          4       5.4979136                    1_GWF-(1,26510)      0.26869204                    1_GWF-(1,15975)
          5          1          5       4.0252056                    1_GWF-(1,26647)     -0.12401546                    1_GWF-(1,15912)
          6          1          6       4.0090244                    1_GWF-(1,26649) -8.10584725E-02                    1_GWF-(1,15918)
          7          1          7       3.3227513                    1_GWF-(1,26663) -9.78282862E-02                    1_GWF-(1,15948)
          8          1          8       4.3802880                    1_GWF-(1,26665) -9.71155475E-02                    1_GWF-(1,15942)
          9          1          9       4.6760164                    1_GWF-(1,26666) -6.10824690E-02                    1_GWF-(1,15940)
         10          1         10       6.4300850                    1_GWF-(1,26665) -6.10826771E-02                    1_GWF-(1,15948)
         11          1         11       4.2827146                    1_GWF-(1,26666)  6.11320493E-02                    1_GWF-(1,15940)
         12          1         12       3.3321961                    1_GWF-(1,26649)  6.17102021E-02                    1_GWF-(1,15942)
         13          1         13       2.9818613                    1_GWF-(1,26622)  4.33499422E-02                    1_GWF-(1,15940)
         14          1         14      -2.8391507                    1_GWF-(1,26622) -3.53138213E-02                    1_GWF-(1,15921)
         15          1         15      -2.3266423                    1_GWF-(1,26623)  3.64022747E-02                    1_GWF-(1,10652)
         16          1         16      -2.1115041                    1_GWF-(1,26622)  4.18389303E-02                    1_GWF-(1,10650)
         17          1         17      -1.9776521                    1_GWF-(1,26623)  3.10529918E-02                    1_GWF-(1,14799)
         18          1         18      -2.1097487                    1_GWF-(1,26589) -3.46096671E-02                    1_GWF-(1,15941)
         19          1         19      -3.5998028                    1_GWF-(1,26588)  4.24259108E-02                    1_GWF-(1,10966)
         20          1         20      -3.8277159                    1_GWF-(1,26543)  4.48910458E-02                    1_GWF-(1,10650)
         21          1         21      -3.4244461                    1_GWF-(1,26588) -2.93053605E-02                    1_GWF-(1,11194)
         22          1         22      -3.1569237                    1_GWF-(1,26486)  3.34820171E-02                    1_GWF-(1,10652)
         23          1         23      -3.3129857                    1_GWF-(1,26487)  3.39519632E-02                    1_GWF-(1,10650)
         24          1         24      -3.4205241                    1_GWF-(1,26486)  3.23930231E-02                    1_GWF-(1,14799)
         25          1         25      -2.8597935                    1_GWF-(1,26487)  2.54577495E-02                    1_GWF-(1,10955)
         26          1         26       2.5747567                    1_GWF-(1,20913)  3.02827153E-02                    1_GWF-(1,10651)
         27          1         27       2.5254127                    1_GWF-(1,20921)  3.11270562E-02                    1_GWF-(1,15853)
         28          1         28       1.7356579                    1_GWF-(1,26487)  2.23372358E-02                    1_GWF-(1,11180)
         29          1         29       1.6755207                    1_GWF-(1,26420)  2.28025063E-02                    1_GWF-(1,10652)
         30          1         30       1.7968780                    1_GWF-(1,26422)  2.65433722E-02                    1_GWF-(1,10650)
         31          1         31       1.7925534                    1_GWF-(1,26350) -2.11833747E-02                    1_GWF-(1,10966)
         32          1         32       1.6642598                    1_GWF-(1,26422) -2.52153533E-02                    1_GWF-(1,10963)
         33          1         33       1.4239735                    1_GWF-(1,26350) -1.70466986E-02                    1_GWF-(1,10958)
         34          1         34       1.3880533                    1_GWF-(1,26422) -1.69217063E-02                    1_GWF-(1,10965)
         35          1         35       1.0909921                    1_GWF-(1,26350) -2.32450062E-02                    1_GWF-(1,10963)
         36          1         36      0.80713571                    1_GWF-(1,26422) -1.90377183E-02                    1_GWF-(1,10958)
         37          1         37     -0.88436413                    1_GWF-(1,26422) -1.56513137E-02                    1_GWF-(1,10968)
         38          1         38     -0.93873874                    1_GWF-(1,26350) -1.52016342E-02                    1_GWF-(1,11180)
         39          1         39     -0.96455214                    1_GWF-(1,26422)  1.96098721E-02                    1_GWF-(1,15942)
         40          1         40     -0.89872296                    1_GWF-(1,26350) -2.11331053E-02                    1_GWF-(1,15941)
         41          1         41     -0.75410984                    1_GWF-(1,26649)  2.03327711E-02                    1_GWF-(1,15939)
         42          1         42     -0.88839246                    1_GWF-(1,26623)  1.96844575E-02                    1_GWF-(1,15940)
         43          1         43     -0.78742227                    1_GWF-(1,26586) -1.66077416E-02                    1_GWF-(1,15940)
         44          1         44     -0.63198506                    1_GWF-(1,26623) -1.99515569E-02                    1_GWF-(1,15941)
         45          1         45      0.48874890                    1_GWF-(1,26218)  2.24255824E-02                    1_GWF-(1,15941)
         46          1         46     -0.58307163                    1_GWF-(1,20926)  1.61157820E-02                    1_GWF-(1,15940)
         47          1         47     -0.61906660                    1_GWF-(1,20933) -2.21952513E-02                    1_GWF-(1,15940)
         48          1         48     -0.69579010                    1_GWF-(1,21272) -1.87621883E-02                    1_GWF-(1,15941)
         49          1         49     -0.69569082                    1_GWF-(1,21261)  2.05617681E-02                    1_GWF-(1,15941)
         50          1         50     -0.71775628                    1_GWF-(1,26218) -2.15780715E-02                    1_GWF-(1,15941)
         51          2          1      -22.786684                    1_GWF-(1,26519)     -0.16338938                    1_GWF-(1,26458)
         52          2          2      -8.8589881                    1_GWF-(1,26569)  4.61489244E-02                    1_GWF-(1,26458)
         53          2          3      -4.0715160                    1_GWF-(1,26637)  2.55813965E-02                    1_GWF-(1,26516)
         54          2          4      -4.5077083                    1_GWF-(1,26665) -2.05618750E-02                    1_GWF-(1,26458)
         55          2          5      -3.3250124                    1_GWF-(1,26649)  1.77449652E-02                    1_GWF-(1,26458)
         56          2          6      -2.6508858                    1_GWF-(1,26589)  1.07951799E-02                    1_GWF-(1,26516)
         57          2          7      -2.3563774                    1_GWF-(1,26543) -1.07449417E-02                    1_GWF-(1,15940)
         58          2          8      -2.0875561                    1_GWF-(1,26486)  1.23015493E-02                    1_GWF-(1,15940)
         59          2          9      -1.6130392                    1_GWF-(1,26487)  1.06093891E-02                     1_GWF-(1,9291)
         60          2         10      -1.4776665                    1_GWF-(1,26350)  1.05883646E-02                     1_GWF-(1,9290)
         61          2         11      -1.2244311                    1_GWF-(1,26422)  1.05435178E-02                     1_GWF-(1,9290)
         62          2         12     -0.98359578                    1_GWF-(1,26217)  1.04859555E-02                     1_GWF-(1,9290)
         63          2         13     -0.84172051                    1_GWF-(1,26218)  1.04199540E-02                     1_GWF-(1,9290)
         64          2         14     -0.60868958                    1_GWF-(1,26649)  1.03247338E-02                     1_GWF-(1,9290)
         65          2         15     -0.70763396                    1_GWF-(1,26622)  1.01586723E-02                     1_GWF-(1,9290)
         66          2         16     -0.81315561                    1_GWF-(1,25515)  9.95768426E-03                     1_GWF-(1,9290)
         67          2         17       1.1487129                    1_GWF-(1,26350) -9.88712222E-03                    1_GWF-(1,15940)
         68          2         18       1.0667698                    1_GWF-(1,26217)  9.72335376E-03                     1_GWF-(1,9290)
         69          2         19      0.90950838                    1_GWF-(1,26218)  9.68813054E-03                     1_GWF-(1,9290)
         70          2         20     -0.58445253                    1_GWF-(1,26588)  9.66511121E-03                     1_GWF-(1,9290)
         71          2         21       1.1090298                    1_GWF-(1,26588)  9.63419660E-03                     1_GWF-(1,9290)
         72          2         22       1.4911694                    1_GWF-(1,26543)  9.46326545E-03                     1_GWF-(1,9290)
         73          2         23      0.89280698                    1_GWF-(1,26542)  9.14266282E-03                     1_GWF-(1,9291)
         74          2         24     -0.89128800                    1_GWF-(1,26422)  8.77876998E-03                     1_GWF-(1,9290)
         75          2         25      -1.1937352                    1_GWF-(1,26486)  8.41388200E-03                     1_GWF-(1,9291)
         76          2         26      -1.3362984                    1_GWF-(1,26487)  8.11863715E-03                     1_GWF-(1,9290)
         77          2         27     -0.93307565                    1_GWF-(1,26420)  7.88230092E-03                     1_GWF-(1,9291)
         78          2         28     -0.49109067                    1_GWF-(1,26543)  7.72112714E-03                     1_GWF-(1,9291)
         79          2         29     -0.47150541                    1_GWF-(1,26327)  7.58830433E-03                     1_GWF-(1,9290)
         80          2         30      0.39046077                    1_GWF-(1,26420)  8.72647937E-03                    1_GWF-(1,15941)
         81          2         31     -0.39283111                    1_GWF-(1,26184)  1.35332868E-02                    1_GWF-(1,15940)
         82          2         32     -0.41124781                    1_GWF-(1,26672)  1.77902568E-02                    1_GWF-(1,15941)
         83          2         33     -0.46054561                    1_GWF-(1,26156)  2.32044541E-02                    1_GWF-(1,15940)
         84          2         34     -0.46098939                    1_GWF-(1,25790) -2.67991635E-02                    1_GWF-(1,15940)
         85          2         35      0.66337283                    1_GWF-(1,26422)  2.72075192E-02                    1_GWF-(1,15940)
         86          2         36      0.57624328                    1_GWF-(1,26350) -2.04554068E-02                    1_GWF-(1,15940)
         87          2         37     -0.56645152                    1_GWF-(1,26350) -1.08050848E-02                    1_GWF-(1,15941)
         88          2         38      0.62621855                    1_GWF-(1,26350) -7.07639822E-03                    1_GWF-(1,26625)
         89          2         39      0.59070590                    1_GWF-(1,26422) -1.18787578E-02                    1_GWF-(1,15940)
         90          2         40     -0.54524076                    1_GWF-(1,26422)  1.96778711E-02                    1_GWF-(1,15940)
         91          2         41      0.41207299                    1_GWF-(1,20977) -2.14782655E-02                    1_GWF-(1,15940)
         92          2         42      0.30287232                    1_GWF-(1,21288)  2.44442556E-02                    1_GWF-(1,15940)
         93          2         43      0.32275610                    1_GWF-(1,21283) -2.30028050E-02                    1_GWF-(1,15940)
         94          2         44      0.33969409                    1_GWF-(1,21271)  2.44209817E-02                    1_GWF-(1,15940)
         95          2         45      0.34190389                    1_GWF-(1,20578) -2.48144219E-02                    1_GWF-(1,15940)
         96          2         46      0.38191915                    1_GWF-(1,20582) -2.23547314E-02                    1_GWF-(1,15941)
         97          2         47      0.39641433                    1_GWF-(1,20570) -1.90895894E-02                    1_GWF-(1,15940)
         98          2         48     -0.29951550                    1_GWF-(1,26422) -1.43059432E-02                    1_GWF-(1,15941)
         99          2         49     -0.30355082                    1_GWF-(1,20996)  1.15717006E-02                    1_GWF-(1,10652)
        100          2         50     -0.34779891                    1_GWF-(1,20983)  9.28922922E-03                    1_GWF-(1,10651)
        101          3          1      0.21628656                    1_GWF-(1,26673) -5.33805772E-02                    1_GWF-(1,11430)
        102          3          2      0.26943715                    1_GWF-(1,26672)  9.56759497E-03                    1_GWF-(1,10651)
        103          3          3     -0.24524385                    1_GWF-(1,26672)  5.13448176E-02                    1_GWF-(1,11430)
        104          3          4      0.25158879                    1_GWF-(1,26350) -4.05988766E-02                    1_GWF-(1,11430)
        105          3          5     -0.31517416                    1_GWF-(1,20616)  1.24079073E-02                    1_GWF-(1,11430)
        106          3          6     -0.23660221                    1_GWF-(1,20609)  1.77990767E-02                    1_GWF-(1,11430)
        107          3          7     -0.19223236                    1_GWF-(1,26674) -2.79537366E-02                    1_GWF-(1,11430)
        108          3          8     -0.23890558                    1_GWF-(1,26663)  1.78639863E-02                    1_GWF-(1,11430)
        109          3          9      0.18156793                    1_GWF-(1,20700)  6.78789058E-03                    1_GWF-(1,10652)
        110          3         10      0.21238467                    1_GWF-(1,20699) -1.94451372E-02                    1_GWF-(1,11430)
        111          3         11      0.23643492                    1_GWF-(1,20596)  1.74204563E-02                    1_GWF-(1,11430)
        112          3         12     -0.25424206                    1_GWF-(1,26422)  5.36160648E-03                    1_GWF-(1,14801)
        113          3         13      0.21116790                    1_GWF-(1,26422) -8.08194777E-03                    1_GWF-(1,11430)
        114          3         14      0.23463818                    1_GWF-(1,26350)  1.32064803E-02                    1_GWF-(1,11430)
        115          3         15     -0.28882897                    1_GWF-(1,26350) -7.48877028E-03                    1_GWF-(1,11430)
        116          3         16     -0.27319519                    1_GWF-(1,26422) -4.98688373E-03                    1_GWF-(1,11430)
        117          3         17      0.23558496                    1_GWF-(1,20913)  1.20324263E-02                    1_GWF-(1,11430)
        118          3         18     -0.19653803                    1_GWF-(1,26672) -7.86694516E-03                    1_GWF-(1,11430)
        119          3         19      0.18285631                    1_GWF-(1,26672)  5.92009088E-03                    1_GWF-(1,14801)
        120          3         20     -0.19958179                    1_GWF-(1,20911)  6.71774671E-03                    1_GWF-(1,11430)
        121          3         21     -0.19196665                    1_GWF-(1,20919) -7.53441356E-03                    1_GWF-(1,11430)
        122          3         22     -0.19770381                    1_GWF-(1,20229)  5.43326897E-03                    1_GWF-(1,14800)
        123          3         23     -0.14120023                    1_GWF-(1,20571)  5.22504924E-03                    1_GWF-(1,14801)
        124          3         24      0.22470044                    1_GWF-(1,26486) -5.72755418E-03                    1_GWF-(1,11430)
        125          3         25      0.26239256                    1_GWF-(1,26487)  2.74697539E-03                    1_GWF-(1,10650)
        126          3         26      0.19605257                    1_GWF-(1,26486)  4.40555129E-03                    1_GWF-(1,11430)
        127          3         27      0.12080423                    1_GWF-(1,26422) -4.87409656E-03                    1_GWF-(1,11430)
        128          3         28     -0.18695795                    1_GWF-(1,26588)  5.89378041E-03                    1_GWF-(1,14801)
        129          3         29     -0.28121479                    1_GWF-(1,26543)  4.62489341E-03                    1_GWF-(1,14800)
        130          3         30     -0.23321711                    1_GWF-(1,26588) -3.18410222E-03                    1_GWF-(1,11430)
        131          3         31      0.17977709                    1_GWF-(1,26588)  4.53688223E-03                    1_GWF-(1,14801)
        132          3         32     -0.10447680                    1_GWF-(1,26588)  5.86795479E-03                    1_GWF-(1,14800)
        133          3         33     -0.11885696                    1_GWF-(1,26422)  5.64025506E-03                    1_GWF-(1,14801)
        134          3         34      0.13954429                    1_GWF-(1,26622) -4.81747995E-03                    1_GWF-(1,14801)
        135          3         35     -0.12744434                    1_GWF-(1,26622)  2.95693469E-03                    1_GWF-(1,11430)
        136          3         36      0.12661473                    1_GWF-(1,26622) -2.94523178E-03                    1_GWF-(1,14800)
        137          3         37      0.12309263                    1_GWF-(1,26649) -4.58282588E-03                    1_GWF-(1,14801)
        138          3         38      0.10155842                    1_GWF-(1,26622) -4.27074220E-03                    1_GWF-(1,14800)
        139          3         39 -8.80456388E-02                    1_GWF-(1,26666)  2.87254594E-03                    1_GWF-(1,14800)
        140          3         40     -0.14844642                    1_GWF-(1,26665)  1.62919171E-03                     1_GWF-(1,9290)
        141          3         41     -0.11233302                    1_GWF-(1,26666)  2.24814230E-03                    1_GWF-(1,14801)
        142          3         42     -0.10813145                    1_GWF-(1,26665) -4.66016994E-03                    1_GWF-(1,14801)
        143          3         43 -8.10011190E-02                    1_GWF-(1,26217) -5.67784703E-03                    1_GWF-(1,14800)
        144          3         44  8.94168798E-02                    1_GWF-(1,26588) -6.71115206E-03                    1_GWF-(1,14801)
        145          3         45  9.17266767E-02                    1_GWF-(1,26649) -7.69432340E-03                    1_GWF-(1,14800)
        146          3         46      0.11256629                    1_GWF-(1,26648) -1.00133770E-02                    1_GWF-(1,14801)
        147          3         47  8.31519118E-02                    1_GWF-(1,26443) -9.62455969E-03                    1_GWF-(1,14800)
        148          3         48  9.28784064E-02                    1_GWF-(1,26453) -9.76153572E-03                    1_GWF-(1,14801)
        149          3         49     -0.11513876                    1_GWF-(1,26648)  9.66062300E-03                    1_GWF-(1,14801)
        150          3         50     -0.12663066                    1_GWF-(1,26463) -1.10106839E-02                    1_GWF-(1,14801)
        151          4          1 -6.51906804E-02                    1_GWF-(1,26217) -1.23474644E-02                    1_GWF-(1,15226)
        152          4          2 -5.45365967E-02                    1_GWF-(1,26218) -8.64115505E-03                    1_GWF-(1,14801)
        153          4          3 -6.49054855E-02                    1_GWF-(1,26217) -9.93694151E-03                    1_GWF-(1,14800)
        154          4          4 -6.92887777E-02                    1_GWF-(1,26218) -1.09729718E-02                    1_GWF-(1,14801)
        155          4          5 -6.80819009E-02                    1_GWF-(1,26217) -1.07724874E-02                    1_GWF-(1,14800)
        156          4          6 -7.86716385E-02                    1_GWF-(1,26218) -1.04259596E-02                    1_GWF-(1,14801)
        157          4          7 -6.33493423E-02                    1_GWF-(1,26217) -8.79047397E-03                    1_GWF-(1,14800)
        158          4          8  4.46556313E-02                    1_GWF-(1,26217) -8.03062579E-03                    1_GWF-(1,14801)
        159          4          9  4.59346474E-02                    1_GWF-(1,26218) -6.07714993E-03                    1_GWF-(1,14800)
        160          4         10 -5.28850660E-02                    1_GWF-(1,26665) -4.62784101E-03                    1_GWF-(1,14801)
        161          4         11  7.42718725E-02                    1_GWF-(1,26665)  1.74736635E-03                    1_GWF-(1,15940)
        162          4         12  6.21441956E-02                    1_GWF-(1,26666) -1.34853124E-03                    1_GWF-(1,14800)
        163          4         13  6.19756299E-02                    1_GWF-(1,26665) -3.69189937E-03                    1_GWF-(1,14801)
        164          4         14  4.47773588E-02                    1_GWF-(1,26622) -4.51646303E-03                    1_GWF-(1,14800)
        165          4         15  5.57252755E-02                    1_GWF-(1,26649) -3.87877834E-03                    1_GWF-(1,14801)
        166          4         16  6.57387497E-02                    1_GWF-(1,26622) -2.22084978E-03                    1_GWF-(1,15896)
        167          4         17 -8.20949431E-02                    1_GWF-(1,26622) -2.02180219E-03                    1_GWF-(1,14800)
        168          4         18 -6.91292978E-02                    1_GWF-(1,26623) -3.84910372E-03                    1_GWF-(1,14801)
        169          4         19  6.99741055E-02                    1_GWF-(1,20135)  4.78864800E-03                    1_GWF-(1,14801)
        170          4         20  7.19058271E-02                    1_GWF-(1,20156)  4.03490245E-03                    1_GWF-(1,14800)
        171          4         21 -6.60491347E-02                    1_GWF-(1,26543)  2.61692301E-03                    1_GWF-(1,14801)
        172          4         22 -8.72503257E-02                    1_GWF-(1,26588)  1.81575720E-03                    1_GWF-(1,15810)
        173          4         23 -8.22480590E-02                    1_GWF-(1,20155)  2.94332623E-03                    1_GWF-(1,14800)
        174          4         24 -8.58681474E-02                    1_GWF-(1,20163) -4.22462247E-03                    1_GWF-(1,14800)
        175          4         25 -7.16402217E-02                    1_GWF-(1,20496) -3.96315371E-03                    1_GWF-(1,14801)
        176          4         26  5.90777454E-02                    1_GWF-(1,26486)  2.05258437E-03                    1_GWF-(1,14801)
        177          4         27  7.05021522E-02                    1_GWF-(1,26487)  1.13953489E-03                    1_GWF-(1,15853)
        178          4         28 -6.49685561E-02                    1_GWF-(1,26487)  3.07388058E-03                    1_GWF-(1,14800)
        179          4         29  5.37527001E-02                    1_GWF-(1,26487)  4.63822710E-03                    1_GWF-(1,14801)
        180          4         30  5.38866904E-02                    1_GWF-(1,20228)  5.24757002E-03                    1_GWF-(1,14800)
        181          4         31  5.31113171E-02                    1_GWF-(1,20917)  5.57466383E-03                    1_GWF-(1,14801)
        182          4         32  4.22855834E-02                    1_GWF-(1,20196)  5.58324810E-03                    1_GWF-(1,14800)
        183          4         33  4.95169497E-02                    1_GWF-(1,20208)  6.08872689E-03                    1_GWF-(1,14801)
        184          4         34  5.00445075E-02                    1_GWF-(1,20212)  6.36496934E-03                    1_GWF-(1,14800)
        185          4         35 -4.07974830E-02                    1_GWF-(1,26350)  6.75445931E-03                    1_GWF-(1,14801)
        186          4         36 -6.03810395E-02                    1_GWF-(1,26422)  5.89284067E-03                    1_GWF-(1,14800)
        187          4         37 -6.72685032E-02                    1_GWF-(1,26350)  4.63361552E-03                    1_GWF-(1,14801)
        188          4         38 -6.91637949E-02                    1_GWF-(1,26422)  2.52514280E-03                    1_GWF-(1,14800)
        189          4         39 -6.14187706E-02                    1_GWF-(1,20205)  1.51758987E-03                    1_GWF-(1,10650)
        190          4         40 -5.30988881E-02                    1_GWF-(1,20213)  2.55668396E-03                    1_GWF-(1,14801)
        191          4         41 -5.08145637E-02                    1_GWF-(1,20571)  4.19841427E-03                    1_GWF-(1,14800)
        192          4         42 -4.42406909E-02                    1_GWF-(1,20580)  5.17302753E-03                    1_GWF-(1,14801)
        193          4         43  3.26990262E-02                    1_GWF-(1,26486)  5.24347599E-03                    1_GWF-(1,14800)
        194          4         44  3.12556428E-02                    1_GWF-(1,26420)  6.05782601E-03                    1_GWF-(1,14801)
        195          4         45  3.64739149E-02                    1_GWF-(1,26421)  5.81579282E-03                    1_GWF-(1,14800)
        196          4         46  3.15354216E-02                    1_GWF-(1,20230)  5.58881802E-03                    1_GWF-(1,14801)
        197          4         47  2.78952837E-02                    1_GWF-(1,20616)  4.91224186E-03                    1_GWF-(1,14800)
        198          4         48  2.63184445E-02                    1_GWF-(1,20704)  4.33057698E-03                    1_GWF-(1,14801)
        199          4         49  2.86463022E-02                    1_GWF-(1,20697)  3.77447536E-03                    1_GWF-(1,14800)
        200          4         50  2.59728788E-02                    1_GWF-(1,20720)  3.56998546E-03                    1_GWF-(1,14801)
        201          5          1 -1.57911794E-02                    1_GWF-(1,26217)  3.36717337E-03                    1_GWF-(1,14800)
        202          5          2 -2.41783340E-02                    1_GWF-(1,26218)  3.72328774E-03                    1_GWF-(1,14801)
        203          5          3 -2.21773821E-02                    1_GWF-(1,26217)  4.06426353E-03                    1_GWF-(1,14800)
        204          5          4 -1.99218613E-02                    1_GWF-(1,26486)  4.55357961E-03                    1_GWF-(1,14801)
        205          5          5 -2.39243891E-02                    1_GWF-(1,20230)  4.70828794E-03                    1_GWF-(1,14800)
        206          5          6 -2.37059519E-02                    1_GWF-(1,26486)  5.14627281E-03                    1_GWF-(1,14801)
        207          5          7 -1.97108406E-02                    1_GWF-(1,26544)  4.52530894E-03                    1_GWF-(1,14800)
        208          5          8 -1.70816472E-02                    1_GWF-(1,26486)  4.16486010E-03                    1_GWF-(1,14801)
        209          5          9  1.96344804E-02                    1_GWF-(1,20579)  3.28922961E-03                    1_GWF-(1,14800)
        210          5         10  2.45886591E-02                    1_GWF-(1,20560)  2.41375776E-03                    1_GWF-(1,14801)
        211          5         11  2.31611714E-02                    1_GWF-(1,26486)  1.31993349E-03                    1_GWF-(1,10650)
        212          5         12  2.90754389E-02                    1_GWF-(1,26350)  1.02236845E-03                    1_GWF-(1,10481)
        213          5         13  3.92816664E-02                    1_GWF-(1,26422)  1.92205335E-03                    1_GWF-(1,14801)
        214          5         14  3.92531644E-02                    1_GWF-(1,26350)  2.63667902E-03                    1_GWF-(1,14800)
        215          5         15  3.46791249E-02                    1_GWF-(1,26422)  3.07819294E-03                    1_GWF-(1,14801)
        216          5         16  2.45716410E-02                    1_GWF-(1,26350)  2.87481581E-03                    1_GWF-(1,14800)
        217          5         17 -1.71138535E-02                    1_GWF-(1,20111)  2.72454914E-03                    1_GWF-(1,14801)
        218          5         18 -1.33644770E-02                    1_GWF-(1,20186)  2.30045622E-03                    1_GWF-(1,14800)
        219          5         19 -1.49095802E-02                    1_GWF-(1,20196)  2.03613904E-03                    1_GWF-(1,14801)
        220          5         20 -1.64824627E-02                    1_GWF-(1,20916)  1.80810182E-03                    1_GWF-(1,14800)
        221          5         21 -2.05280354E-02                    1_GWF-(1,20226)  1.50723657E-03                    1_GWF-(1,14801)
        222          5         22 -1.53970047E-02                    1_GWF-(1,20208)  1.35766309E-03                    1_GWF-(1,10650)
        223          5         23 -1.76313096E-02                    1_GWF-(1,26420)  6.55057853E-04                    1_GWF-(1,10629)
        224          5         24 -2.16773714E-02                    1_GWF-(1,26487) -2.81617609E-04                    1_GWF-(1,15853)
        225          5         25 -2.02951240E-02                    1_GWF-(1,26420)  7.92086896E-04                    1_GWF-(1,10650)
        226          5         26 -1.98931074E-02                    1_GWF-(1,26487) -1.08813762E-03                    1_GWF-(1,14800)
        227          5         27  1.86883689E-02                    1_GWF-(1,20163)  1.18679648E-03                    1_GWF-(1,10650)
        228          5         28  1.50542055E-02                    1_GWF-(1,20122)  7.78426788E-04                    1_GWF-(1,14801)
        229          5         29 -1.62109400E-02                    1_GWF-(1,26649) -2.85849348E-04                    1_GWF-(1,15570)
        230          5         30  1.65827776E-02                    1_GWF-(1,26543)  6.53441645E-04                    1_GWF-(1,14800)
        231          5         31  1.55679434E-02                    1_GWF-(1,26588) -1.04012467E-03                    1_GWF-(1,10650)
        232          5         32  1.08975490E-02                    1_GWF-(1,26543)  9.00240634E-04                    1_GWF-(1,14800)
        233          5         33  1.10844125E-02                    1_GWF-(1,26666) -7.16668193E-04                    1_GWF-(1,14800)
        234          5         34  1.39125866E-02                    1_GWF-(1,26665) -4.51028114E-04                    1_GWF-(1,14801)
        235          5         35 -1.64922148E-02                    1_GWF-(1,26665)  3.13339669E-04                    1_GWF-(1,15921)
        236          5         36  1.19992771E-02                    1_GWF-(1,26665) -7.10976476E-04                    1_GWF-(1,10650)
        237          5         37  7.86184130E-03                    1_GWF-(1,26666) -8.27591234E-04                    1_GWF-(1,14801)
        238          5         38  6.06398275E-03                    1_GWF-(1,26622) -8.24131214E-04                    1_GWF-(1,14800)
        239          5         39 -7.24087040E-03                    1_GWF-(1,26622) -7.22198927E-04                    1_GWF-(1,14801)
        240          5         40 -8.86387668E-03                    1_GWF-(1,26487) -3.39774037E-04                    1_GWF-(1,14800)
        241          5         41 -1.05073887E-02                    1_GWF-(1,26486) -5.60436944E-04                    1_GWF-(1,10650)
        242          5         42 -8.41588061E-03                    1_GWF-(1,26649) -9.08559870E-04                    1_GWF-(1,14801)
        243          5         43 -7.28555511E-03                    1_GWF-(1,26217) -1.12720111E-03                    1_GWF-(1,14800)
        244          5         44 -8.21440957E-03                    1_GWF-(1,26218) -1.36367246E-03                    1_GWF-(1,14801)
        245          5         45  1.04708250E-02                    1_GWF-(1,20604) -1.43212856E-03                    1_GWF-(1,14800)
        246          5         46  1.34519255E-02                    1_GWF-(1,20917) -1.51861391E-03                    1_GWF-(1,14801)
        247          5         47  1.07394894E-02                    1_GWF-(1,20225) -1.44557643E-03                    1_GWF-(1,14800)
        248          5         48  1.10270378E-02                    1_GWF-(1,26217) -1.38980437E-03                    1_GWF-(1,14801)
        249          5         49  1.19892405E-02                    1_GWF-(1,26218) -1.08330969E-03                    1_GWF-(1,14800)
        250          5         50 -2.05345408E-02                    1_GWF-(1,20233)  2.34633207E-03                    1_GWF-(1,15910)
        251          6          1 -9.90015040E-03                    1_GWF-(1,26217) -9.85782723E-04                    1_GWF-(1,14800)
        252          6          2 -1.05450602E-02                    1_GWF-(1,26218) -1.20501696E-03                    1_GWF-(1,14801)
        253          6          3 -1.04808647E-02                    1_GWF-(1,26217)  1.11594483E-03                    1_GWF-(1,14801)
        254          6          4 -9.20323129E-03                    1_GWF-(1,26218) -1.17296026E-03                    1_GWF-(1,14801)
        255          6          5 -8.29949148E-03                    1_GWF-(1,20234) -1.08310553E-03                    1_GWF-(1,14800)
        256          6          6 -8.11537851E-03                    1_GWF-(1,20909) -1.01460776E-03                    1_GWF-(1,14801)
        257          6          7  5.34294634E-03                    1_GWF-(1,26218) -8.11905288E-04                    1_GWF-(1,14800)
        258          6          8  4.99738122E-03                    1_GWF-(1,26217) -6.24670032E-04                    1_GWF-(1,14801)
        259          6          9  4.41472102E-03                    1_GWF-(1,26487) -3.40026302E-04                    1_GWF-(1,14800)
        260          6         10  6.67194531E-03                    1_GWF-(1,26486) -2.34440432E-04                    1_GWF-(1,15226)
        261          6         11  6.25132669E-03                    1_GWF-(1,26487) -3.81391226E-04                    1_GWF-(1,14801)
        262          6         12 -5.08437934E-03                    1_GWF-(1,26649) -4.80511453E-04                    1_GWF-(1,14800)
        263          6         13 -3.73685060E-03                    1_GWF-(1,26622) -4.77757664E-04                    1_GWF-(1,14801)
        264          6         14 -4.01442964E-03                    1_GWF-(1,20953) -4.58352797E-04                    1_GWF-(1,10650)
        265          6         15  6.07932247E-03                    1_GWF-(1,26666)  3.60026252E-04                    1_GWF-(1,10650)
        266          6         16  9.49127634E-03                    1_GWF-(1,26665) -1.94560537E-04                    1_GWF-(1,10650)
        267          6         17  7.20589876E-03                    1_GWF-(1,26666) -3.13859071E-04                    1_GWF-(1,14800)
        268          6         18  5.70175031E-03                    1_GWF-(1,26665)  4.28880942E-04                    1_GWF-(1,14800)
        269          6         19  6.45056470E-03                    1_GWF-(1,20131) -6.23797340E-04                    1_GWF-(1,10650)
        270          6         20 -6.52442727E-03                    1_GWF-(1,26588)  5.39811910E-04                    1_GWF-(1,10650)
        271          6         21 -6.81584736E-03                    1_GWF-(1,26543) -2.60246334E-04                    1_GWF-(1,10650)
        272          6         22 -7.61467709E-03                    1_GWF-(1,26622)  2.22984688E-04                    1_GWF-(1,14801)
        273          6         23 -5.89881347E-03                    1_GWF-(1,20155)  5.55115463E-04                    1_GWF-(1,10650)
        274          6         24 -7.22130911E-03                    1_GWF-(1,20163) -6.72800507E-04                    1_GWF-(1,10650)
        275          6         25  7.07776076E-03                    1_GWF-(1,26487)  6.02145822E-04                    1_GWF-(1,10650)
        276          6         26  7.15753682E-03                    1_GWF-(1,26420) -1.86881811E-04                    1_GWF-(1,10650)
        277          6         27  8.15374156E-03                    1_GWF-(1,26487) -2.11816653E-04                    1_GWF-(1,10650)
        278          6         28  7.53969565E-03                    1_GWF-(1,26588)  6.36830460E-04                    1_GWF-(1,10650)
        279          6         29  5.11209554E-03                    1_GWF-(1,20210) -6.02698080E-04                    1_GWF-(1,10650)
        280          6         30  6.81479091E-03                    1_GWF-(1,20216)  8.08556420E-04                    1_GWF-(1,10650)
        281          6         31  6.69383621E-03                    1_GWF-(1,20918) -5.17033636E-04                    1_GWF-(1,10650)
        282          6         32  6.03232408E-03                    1_GWF-(1,21261)  6.55968445E-04                    1_GWF-(1,10650)
        283          6         33  5.29609378E-03                    1_GWF-(1,20223)  5.59952635E-04                    1_GWF-(1,14801)
        284          6         34  5.61828548E-03                    1_GWF-(1,20216)  5.80127003E-04                    1_GWF-(1,14800)
        285          6         35 -4.73456070E-03                    1_GWF-(1,26350)  6.16957311E-04                    1_GWF-(1,14801)
        286          6         36 -7.24376999E-03                    1_GWF-(1,26422)  5.80100364E-04                    1_GWF-(1,14800)
        287          6         37 -8.20876857E-03                    1_GWF-(1,26350)  5.16529685E-04                    1_GWF-(1,14801)
        288          6         38 -8.37901472E-03                    1_GWF-(1,26422)  3.15962987E-04                    1_GWF-(1,14800)
        289          6         39 -6.58137900E-03                    1_GWF-(1,26350)  4.23335012E-04                    1_GWF-(1,10650)
        290          6         40 -5.59345784E-03                    1_GWF-(1,20606)  2.61125966E-04                    1_GWF-(1,10629)
        291          6         41 -5.01215017E-03                    1_GWF-(1,20571)  3.65070086E-04                    1_GWF-(1,14800)
        292          6         42  3.43072329E-03                    1_GWF-(1,26350)  4.72759679E-04                    1_GWF-(1,14801)
        293          6         43  3.89763593E-03                    1_GWF-(1,26421)  5.57562601E-04                    1_GWF-(1,14800)
        294          6         44  3.55149449E-03                    1_GWF-(1,26420)  6.63186186E-04                    1_GWF-(1,14801)
        295          6         45  4.25564066E-03                    1_GWF-(1,26218)  6.39956120E-04                    1_GWF-(1,14800)
        296          6         46  3.95996931E-03                    1_GWF-(1,20606)  6.56661754E-04                    1_GWF-(1,14801)
        297          6         47  3.03264271E-03                    1_GWF-(1,26486)  6.12990909E-04                    1_GWF-(1,14800)
        298          6         48  2.77994498E-03                    1_GWF-(1,20209)  5.92341404E-04                    1_GWF-(1,14801)
        299          6         49  2.20117654E-03                    1_GWF-(1,26218)  4.84135664E-04                    1_GWF-(1,14800)
        300          6         50  1.58106308E-03                    1_GWF-(1,20159)  4.23178290E-04                    1_GWF-(1,14801)
        301          7          1 -8.07697583E-03                    1_GWF-(1,11439)  4.11538448E-04                    1_GWF-(1,14800)
        302          7          2 -3.07440786E-03                    1_GWF-(1,11440)  5.43536817E-04                    1_GWF-(1,14801)
        303          7          3  5.36384913E-03                    1_GWF-(1,11439)  5.57592780E-04                    1_GWF-(1,14800)
        304          7          4 -4.67494800E-03                    1_GWF-(1,11439)  5.83435160E-04                    1_GWF-(1,14801)
        305          7          5 -5.60818652E-03                    1_GWF-(1,11440)  5.23834935E-04                    1_GWF-(1,14800)
        306          7          6  5.50663316E-03                    1_GWF-(1,11440)  5.02639583E-04                    1_GWF-(1,14801)
        307          7          7 -2.48765184E-03                    1_GWF-(1,26544)  4.18167890E-04                    1_GWF-(1,14800)
        308          7          8 -2.65158526E-03                    1_GWF-(1,26486)  3.42358306E-04                    1_GWF-(1,14801)
        309          7          9  3.35060822E-03                    1_GWF-(1,11440)  2.06575863E-04                    1_GWF-(1,10650)
        310          7         10  2.69566056E-03                    1_GWF-(1,20571)  1.24665932E-04                    1_GWF-(1,10481)
        311          7         11  3.39765999E-03                    1_GWF-(1,26486)  2.75664994E-04                    1_GWF-(1,14801)
        312          7         12  3.21251385E-03                    1_GWF-(1,26588)  2.59780073E-04                    1_GWF-(1,14800)
        313          7         13  3.37282223E-03                    1_GWF-(1,21275)  1.84917863E-04                    1_GWF-(1,14801)
        314          7         14  3.97116456E-03                    1_GWF-(1,26422)  2.67308105E-04                    1_GWF-(1,10650)
        315          7         15  3.77179067E-03                    1_GWF-(1,26350)  1.63058298E-04                    1_GWF-(1,10481)
        316          7         16  3.70557075E-03                    1_GWF-(1,26422)  1.65896706E-04                    1_GWF-(1,10650)
        317          7         17  2.90877399E-03                    1_GWF-(1,26350)  2.01206376E-04                    1_GWF-(1,14800)
        318          7         18  2.14501283E-03                    1_GWF-(1,26422)  2.30332280E-04                    1_GWF-(1,14801)
        319          7         19 -1.98892253E-03                    1_GWF-(1,21267)  2.21676486E-04                    1_GWF-(1,14800)
        320          7         20 -2.24529066E-03                    1_GWF-(1,21259)  2.19341085E-04                    1_GWF-(1,14801)
        321          7         21 -2.21302487E-03                    1_GWF-(1,20230)  2.57645610E-04                    1_GWF-(1,10650)
        322          7         22 -1.98538240E-03                    1_GWF-(1,20221) -2.35925473E-04                    1_GWF-(1,10650)
        323          7         23 -1.70523013E-03                    1_GWF-(1,11439)  2.53765615E-04                    1_GWF-(1,10650)
        324          7         24  1.99336226E-03                    1_GWF-(1,20228) -2.01905157E-04                    1_GWF-(1,10650)
        325          7         25  2.38032778E-03                    1_GWF-(1,20219)  1.57719197E-04                    1_GWF-(1,10650)
        326          7         26 -2.09064967E-03                    1_GWF-(1,26622)  2.94370506E-05                    1_GWF-(1,15942)
        327          7         27 -1.97005502E-03                    1_GWF-(1,26649) -1.40792154E-04                    1_GWF-(1,10650)
        328          7         28  1.92868653E-03                    1_GWF-(1,20164)  2.09304026E-04                    1_GWF-(1,10650)
        329          7         29  1.53372148E-03                    1_GWF-(1,20110) -1.99940477E-04                    1_GWF-(1,10650)
        330          7         30 -1.46060448E-03                    1_GWF-(1,20166)  1.41766645E-04                    1_GWF-(1,10650)
        331          7         31 -1.57199999E-03                    1_GWF-(1,20211)  7.66741861E-05                    1_GWF-(1,14801)
        332          7         32  1.81787732E-03                    1_GWF-(1,26588) -3.38473505E-05                    1_GWF-(1,10650)
        333          7         33  1.52455722E-03                    1_GWF-(1,26487)  7.80754264E-05                    1_GWF-(1,10650)
        334          7         34  1.52698605E-03                    1_GWF-(1,26588) -1.18303835E-04                    1_GWF-(1,10650)
        335          7         35  1.23981394E-03                    1_GWF-(1,26543) -9.78658458E-05                    1_GWF-(1,14801)
        336          7         36  1.00127804E-03                    1_GWF-(1,26588) -9.31135926E-05                    1_GWF-(1,14800)
        337          7         37  1.15850949E-03                    1_GWF-(1,26665) -7.09453466E-05                    1_GWF-(1,14801)
        338          7         38  1.36913358E-03                    1_GWF-(1,26666) -4.41774204E-05                    1_GWF-(1,10481)
        339          7         39  1.45206837E-03                    1_GWF-(1,26665) -7.81264935E-05                    1_GWF-(1,10650)
        340          7         40 -1.30278169E-03                    1_GWF-(1,26665) -7.89123403E-05                    1_GWF-(1,14801)
        341          7         41  8.43873167E-04                    1_GWF-(1,26665) -9.22640493E-05                    1_GWF-(1,14800)
        342          7         42 -6.81894626E-04                    1_GWF-(1,26218) -1.10689670E-04                    1_GWF-(1,14801)
        343          7         43  8.84156390E-04                    1_GWF-(1,21270) -1.24640397E-04                    1_GWF-(1,14800)
        344          7         44  1.18055082E-03                    1_GWF-(1,20584) -1.47440035E-04                    1_GWF-(1,14801)
        345          7         45  1.34005879E-03                    1_GWF-(1,20915) -1.51138859E-04                    1_GWF-(1,14800)
        346          7         46  1.30577781E-03                    1_GWF-(1,20234) -1.64189355E-04                    1_GWF-(1,14801)
        347          7         47  1.26278554E-03                    1_GWF-(1,26218) -1.53199097E-04                    1_GWF-(1,14800)
        348          7         48  1.39325924E-03                    1_GWF-(1,26217) -1.63112952E-04                    1_GWF-(1,14801)
        349          7         49 -1.51128201E-03                    1_GWF-(1,20231) -1.35605091E-04                    1_GWF-(1,14800)
        350          7         50 -1.62959206E-03                    1_GWF-(1,20230)  1.88674694E-04                    1_GWF-(1,15910)
        351          8          1 -1.19032545E-03                    1_GWF-(1,26217) -1.22277823E-04                    1_GWF-(1,14800)
        352          8          2 -1.24703610E-03                    1_GWF-(1,26218) -1.33749461E-04                    1_GWF-(1,14801)
        353          8          3 -1.18798325E-03                    1_GWF-(1,26217) -1.26226833E-04                    1_GWF-(1,14800)
        354          8          4 -1.04192924E-03                    1_GWF-(1,26218) -1.32185631E-04                    1_GWF-(1,14801)
        355          8          5 -8.19502424E-04                    1_GWF-(1,26217) -1.16514027E-04                    1_GWF-(1,14800)
        356          8          6 -8.25660876E-04                    1_GWF-(1,20909) -1.08995068E-04                    1_GWF-(1,14801)
        357          8          7  5.64220300E-04                    1_GWF-(1,26218) -8.66704889E-05                    1_GWF-(1,14800)
        358          8          8  5.38380790E-04                    1_GWF-(1,26217) -6.14982423E-05                    1_GWF-(1,14801)
        359          8          9  7.28179285E-04                    1_GWF-(1,26486) -5.11901834E-05                    1_GWF-(1,10650)
        360          8         10  8.68651626E-04                    1_GWF-(1,26487) -2.64743315E-05                    1_GWF-(1,15226)
        361          8         11  7.09517995E-04                    1_GWF-(1,26420) -5.11653621E-05                    1_GWF-(1,14801)
        362          8         12  4.48898151E-04                    1_GWF-(1,26588) -5.75941375E-05                    1_GWF-(1,14800)
        363          8         13 -3.78502095E-04                    1_GWF-(1,26665) -5.52137378E-05                    1_GWF-(1,14801)
        364          8         14  4.78188763E-04                    1_GWF-(1,26665) -4.99815507E-05                    1_GWF-(1,10650)
        365          8         15  7.38233712E-04                    1_GWF-(1,26666)  4.82909177E-05                    1_GWF-(1,10650)
        366          8         16  1.07360471E-03                    1_GWF-(1,26665) -2.49280637E-05                    1_GWF-(1,10650)
        367          8         17 -8.41092852E-04                    1_GWF-(1,26665) -3.25374686E-05                    1_GWF-(1,14800)
        368          8         18 -6.69373567E-04                    1_GWF-(1,26666)  4.98763936E-05                    1_GWF-(1,14800)
        369          8         19  7.66081599E-04                    1_GWF-(1,20120) -7.19483724E-05                    1_GWF-(1,10650)
        370          8         20  8.39102289E-04                    1_GWF-(1,20211)  6.66938207E-05                    1_GWF-(1,10650)
        371          8         21  8.58701575E-04                    1_GWF-(1,20166) -5.49647304E-05                    1_GWF-(1,10650)
        372          8         22 -9.12933088E-04                    1_GWF-(1,26588)  1.49387754E-05                    1_GWF-(1,15810)
        373          8         23  9.38791236E-04                    1_GWF-(1,26588)  5.18613419E-05                    1_GWF-(1,10650)
        374          8         24 -8.72483103E-04                    1_GWF-(1,20152) -8.19974462E-05                    1_GWF-(1,10650)
        375          8         25 -6.86229385E-04                    1_GWF-(1,20509)  9.29046622E-05                    1_GWF-(1,10650)
        376          8         26 -9.43165621E-04                    1_GWF-(1,20219) -7.32511974E-05                    1_GWF-(1,10650)
        377          8         27 -7.67821751E-04                    1_GWF-(1,20221)  7.37233552E-05                    1_GWF-(1,10650)
        378          8         28 -4.12333126E-04                    1_GWF-(1,20913)  6.07629586E-05                    1_GWF-(1,14801)
        379          8         29  6.09919034E-04                    1_GWF-(1,26420)  4.76110461E-05                    1_GWF-(1,14800)
        380          8         30  7.51453254E-04                    1_GWF-(1,26487)  2.75182674E-05                    1_GWF-(1,10650)
        381          8         31 -7.57719152E-04                    1_GWF-(1,26622) -3.92800693E-05                    1_GWF-(1,10650)
        382          8         32  6.71297268E-04                    1_GWF-(1,21261)  6.23381541E-05                    1_GWF-(1,10650)
        383          8         33  6.19571983E-04                    1_GWF-(1,20222)  6.16960058E-05                    1_GWF-(1,14801)
        384          8         34  6.83825370E-04                    1_GWF-(1,20215)  6.32640758E-05                    1_GWF-(1,14800)
        385          8         35 -5.30478557E-04                    1_GWF-(1,26544)  6.32400856E-05                    1_GWF-(1,14801)
        386          8         36 -7.95059751E-04                    1_GWF-(1,26422)  5.84681158E-05                    1_GWF-(1,14800)
        387          8         37 -9.03412371E-04                    1_GWF-(1,26350)  5.26596577E-05                    1_GWF-(1,14801)
        388          8         38 -9.39538543E-04                    1_GWF-(1,26422) -3.48141912E-05                    1_GWF-(1,10650)
        389          8         39 -7.60609464E-04                    1_GWF-(1,26350)  5.06318849E-05                    1_GWF-(1,10650)
        390          8         40 -7.35057345E-04                    1_GWF-(1,20609)  2.82391937E-05                    1_GWF-(1,14801)
        391          8         41 -6.11103721E-04                    1_GWF-(1,20606)  4.22375041E-05                    1_GWF-(1,14800)
        392          8         42 -4.25102966E-04                    1_GWF-(1,20703)  5.40020451E-05                    1_GWF-(1,14801)
        393          8         43  4.56946404E-04                    1_GWF-(1,26421)  6.13966756E-05                    1_GWF-(1,14800)
        394          8         44  4.19296024E-04                    1_GWF-(1,26350)  7.12621335E-05                    1_GWF-(1,14801)
        395          8         45  4.68145280E-04                    1_GWF-(1,26218)  6.70793233E-05                    1_GWF-(1,14800)
        396          8         46  4.01336037E-04                    1_GWF-(1,20571)  7.08840998E-05                    1_GWF-(1,14801)
        397          8         47  3.74564892E-04                    1_GWF-(1,11439)  6.71014306E-05                    1_GWF-(1,14800)
        398          8         48 -4.32264263E-04                    1_GWF-(1,11439)  6.53650730E-05                    1_GWF-(1,14801)
        399          8         49  2.43250077E-04                    1_GWF-(1,26218)  5.03779727E-05                    1_GWF-(1,14800)
        400          8         50  4.63234611E-04                    1_GWF-(1,11439)  4.63138198E-05                    1_GWF-(1,14801)
        401          9          1 -4.46876799E-04                    1_GWF-(1,11439)  4.75336973E-05                    1_GWF-(1,14800)
        402          9          2 -2.79058422E-04                    1_GWF-(1,26588)  5.41273221E-05                    1_GWF-(1,14801)
        403          9          3 -3.36775893E-04                    1_GWF-(1,26589)  4.05996873E-05                    1_GWF-(1,14800)
        404          9          4 -4.74779414E-04                    1_GWF-(1,26487)  1.04486706E-05                    1_GWF-(1,10481)
        405          9          5 -5.19242840E-04                    1_GWF-(1,26486)  4.21698321E-05                    1_GWF-(1,14801)
        406          9          6 -4.42209660E-04                    1_GWF-(1,26544)  5.44973919E-05                    1_GWF-(1,14800)
        407          9          7 -3.43020798E-04                    1_GWF-(1,26486)  5.73892198E-05                    1_GWF-(1,14801)
        408          9          8 -2.96912403E-04                    1_GWF-(1,11440)  5.12095520E-05                    1_GWF-(1,14800)
        409          9          9  2.38930185E-04                    1_GWF-(1,20702)  5.25551744E-05                    1_GWF-(1,14801)
        410          9         10  3.15886136E-04                    1_GWF-(1,20583)  4.96530045E-05                    1_GWF-(1,14800)
        411          9         11  4.05338845E-04                    1_GWF-(1,20609)  4.34322027E-05                    1_GWF-(1,14801)
        412          9         12  3.69212211E-04                    1_GWF-(1,21273)  3.21653722E-05                    1_GWF-(1,14800)
        413          9         13  3.88963706E-04                    1_GWF-(1,21275)  2.21768359E-05                    1_GWF-(1,14801)
        414          9         14  4.68199366E-04                    1_GWF-(1,26422)  2.76538325E-05                    1_GWF-(1,10650)
        415          9         15  4.42392518E-04                    1_GWF-(1,26350)  1.56212388E-05                    1_GWF-(1,10481)
        416          9         16  4.36175680E-04                    1_GWF-(1,26422)  1.83988843E-05                    1_GWF-(1,14801)
        417          9         17  3.40394471E-04                    1_GWF-(1,26350)  2.31287277E-05                    1_GWF-(1,14800)
        418          9         18 -2.53473470E-04                    1_GWF-(1,20221)  2.58081004E-05                    1_GWF-(1,14801)
        419          9         19 -2.44728450E-04                    1_GWF-(1,20584)  2.38986777E-05                    1_GWF-(1,14800)
        420          9         20 -2.64854246E-04                    1_GWF-(1,21259)  1.98489853E-05                    1_GWF-(1,14801)
        421          9         21 -3.48186892E-04                    1_GWF-(1,26487)  1.54664232E-05                    1_GWF-(1,10650)
        422          9         22 -3.37799736E-04                    1_GWF-(1,26486)  1.03909605E-05                    1_GWF-(1,14800)
        423          9         23 -3.10233464E-04                    1_GWF-(1,26487)  1.91047348E-05                    1_GWF-(1,14801)
        424          9         24 -2.62436431E-04                    1_GWF-(1,26486)  1.97241897E-05                    1_GWF-(1,14800)
        425          9         25  3.01465252E-04                    1_GWF-(1,20219) -1.75243549E-05                    1_GWF-(1,10650)
        426          9         26 -2.15330391E-04                    1_GWF-(1,26649)  1.54717542E-05                    1_GWF-(1,10650)
        427          9         27  2.29569101E-04                    1_GWF-(1,26543) -3.86841646E-06                    1_GWF-(1,15810)
        428          9         28  2.41811729E-04                    1_GWF-(1,26588)  1.15908951E-05                    1_GWF-(1,14801)
        429          9         29 -2.10819484E-04                    1_GWF-(1,26588)  1.83564490E-05                    1_GWF-(1,10650)
        430          9         30 -1.58236703E-04                    1_GWF-(1,20166) -2.13003697E-05                    1_GWF-(1,10650)
        431          9         31 -2.12220793E-04                    1_GWF-(1,20168)  1.74932320E-05                    1_GWF-(1,10650)
        432          9         32 -1.66822997E-04                    1_GWF-(1,20119) -1.69224725E-05                    1_GWF-(1,10650)
        433          9         33 -1.31463355E-04                    1_GWF-(1,20108) -1.18919853E-05                    1_GWF-(1,14801)
        434          9         34  1.15911713E-04                    1_GWF-(1,20214) -1.10970623E-05                    1_GWF-(1,14800)
        435          9         35  1.35586704E-04                    1_GWF-(1,20207) -8.99625252E-06                    1_GWF-(1,14801)
        436          9         36 -1.62114631E-04                    1_GWF-(1,26665) -4.28267503E-06                    1_GWF-(1,14800)
        437          9         37  1.59222009E-04                    1_GWF-(1,26665) -8.68684281E-06                    1_GWF-(1,10650)
        438          9         38  1.38879594E-04                    1_GWF-(1,26666) -8.58855527E-06                    1_GWF-(1,14801)
        439          9         39  1.04970338E-04                    1_GWF-(1,26665) -1.03866610E-05                    1_GWF-(1,14800)
        440          9         40 -8.76466044E-05                    1_GWF-(1,20559) -1.19991566E-05                    1_GWF-(1,14801)
        441          9         41 -8.56212657E-05                    1_GWF-(1,26419) -1.16731513E-05                    1_GWF-(1,14800)
        442          9         42  8.44801939E-05                    1_GWF-(1,24626) -1.29019842E-05                    1_GWF-(1,14801)
        443          9         43  1.05051029E-04                    1_GWF-(1,24321) -1.39403527E-05                    1_GWF-(1,14800)
        444          9         44  1.25055879E-04                    1_GWF-(1,20584) -1.59446108E-05                    1_GWF-(1,14801)
        445          9         45  1.45490006E-04                    1_GWF-(1,20232) -1.38823243E-05                    1_GWF-(1,14800)
        446          9         46  1.28521772E-04                    1_GWF-(1,26543) -8.06831851E-06                    1_GWF-(1,14801)
        447          9         47  1.42233202E-04                    1_GWF-(1,26487) -5.20474384E-06                    1_GWF-(1,15921)
        448          9         48  1.27640523E-04                    1_GWF-(1,26622) -1.25337311E-05                    1_GWF-(1,14800)
        449          9         49 -1.44163821E-04                    1_GWF-(1,20234) -1.79900223E-05                    1_GWF-(1,14801)
        450          9         50  1.51269174E-04                    1_GWF-(1,26218) -2.08302889E-05                    1_GWF-(1,14800)
        451         10          1 -1.73679725E-04                    1_GWF-(1,26218) -2.68384946E-05                    1_GWF-(1,14801)
        452         10          2 -1.76940323E-04                    1_GWF-(1,26217) -1.41516097E-05                    1_GWF-(1,14800)
        453         10          3 -1.00469259E-04                    1_GWF-(1,26218)  6.60283143E-06                    1_GWF-(1,15910)
        454         10          4 -1.15558871E-04                    1_GWF-(1,26487) -7.27645303E-06                    1_GWF-(1,10650)
        455         10          5 -1.02530424E-04                    1_GWF-(1,26543) -9.45101756E-06                    1_GWF-(1,14800)
        456         10          6 -9.93519324E-05                    1_GWF-(1,20226) -1.05468322E-05                    1_GWF-(1,14801)
        457         10          7 -6.93808950E-05                    1_GWF-(1,11428) -1.09031408E-05                    1_GWF-(1,14800)
        458         10          8  7.36009846E-05                    1_GWF-(1,26217) -1.06570234E-05                    1_GWF-(1,14801)
        459         10          9  6.71020818E-05                    1_GWF-(1,26218)  9.03742795E-06                    1_GWF-(1,14801)
        460         10         10 -6.15385956E-05                    1_GWF-(1,11428) -7.78575895E-06                    1_GWF-(1,14801)
        461         10         11  5.76229047E-05                    1_GWF-(1,20205) -6.98286381E-06                    1_GWF-(1,14800)
        462         10         12 -6.00728964E-05                    1_GWF-(1,26665)  6.57871309E-06                    1_GWF-(1,10650)
[...]
        523         11         23 -4.00446660E-05                    1_GWF-(1,26588)  2.02397362E-06                    1_GWF-(1,10650)
        524         11         24 -4.22466975E-05                    1_GWF-(1,26543)  4.39368033E-07                     1_GWF-(1,9291)
        525         11         25 -3.85220771E-05                    1_GWF-(1,26588) -1.57807648E-06                    1_GWF-(1,14800)
        526         11         26 -2.45638731E-05                    1_GWF-(1,26543)  2.55729688E-06                    1_GWF-(1,10650)
        527         11         27  2.82780374E-05                    1_GWF-(1,20152) -2.62457854E-06                    1_GWF-(1,10650)
        528         11         28  2.44690957E-05                    1_GWF-(1,20164)  2.40604442E-06                    1_GWF-(1,10650)
        529         11         29  2.61891259E-05                    1_GWF-(1,26665) -1.51237096E-06                    1_GWF-(1,10650)
        530         11         30  2.59832965E-05                    1_GWF-(1,26666)  3.69404825E-07                     1_GWF-(1,9291)
        531         11         31  2.60990369E-05                    1_GWF-(1,26665)  1.40092956E-06                    1_GWF-(1,10650)
        532         11         32  1.85277380E-05                    1_GWF-(1,26487) -1.94996407E-06                    1_GWF-(1,10650)
        533         11         33  1.84052211E-05                    1_GWF-(1,26486) -1.22285706E-06                    1_GWF-(1,14801)
        534         11         34  1.96450571E-05                    1_GWF-(1,26622) -7.77190660E-07                    1_GWF-(1,14800)
        535         11         35 -1.77381524E-05                    1_GWF-(1,26665) -7.32770840E-07                    1_GWF-(1,10650)
        536         11         36 -1.69873309E-05                    1_GWF-(1,26666) -1.11823901E-06                    1_GWF-(1,14801)
        537         11         37 -1.24642100E-05                    1_GWF-(1,26622) -1.44732419E-06                    1_GWF-(1,14800)
        538         11         38  1.09066892E-05                    1_GWF-(1,26674) -1.59881528E-06                    1_GWF-(1,14801)
        539         11         39 -1.13570237E-05                    1_GWF-(1,20213) -1.54475696E-06                    1_GWF-(1,14800)
        540         11         40 -1.13222288E-05                    1_GWF-(1,20559) -1.53097513E-06                    1_GWF-(1,14801)
        541         11         41  1.07950769E-05                    1_GWF-(1,11428)  1.56088770E-06                    1_GWF-(1,14801)
        542         11         42  9.90443425E-06                    1_GWF-(1,24595) -1.80488227E-06                    1_GWF-(1,14801)
        543         11         43  1.22960137E-05                    1_GWF-(1,24321) -1.75167672E-06                    1_GWF-(1,14800)
        544         11         44  1.43637695E-05                    1_GWF-(1,20584) -1.79825206E-06                    1_GWF-(1,14801)
        545         11         45  1.78425294E-05                    1_GWF-(1,20232) -1.82580708E-06                    1_GWF-(1,14800)
        546         11         46  1.54740682E-05                    1_GWF-(1,20234) -2.14228812E-06                    1_GWF-(1,14801)
        547         11         47  1.31583266E-05                    1_GWF-(1,26218)  1.61067694E-06                    1_GWF-(1,10650)
        548         11         48  1.41223181E-05                    1_GWF-(1,26623) -7.58568847E-07                    1_GWF-(1,10650)
        549         11         49 -1.80785082E-05                    1_GWF-(1,26623) -1.42542616E-06                    1_GWF-(1,10650)
        550         11         50 -1.98319270E-05                    1_GWF-(1,26622)  2.13895248E-06                    1_GWF-(1,10650)
        551         12          1 -1.90006518E-05                    1_GWF-(1,26649) -1.88400261E-06                    1_GWF-(1,10650)
        552         12          2  1.68816235E-05                    1_GWF-(1,26588) -7.59227984E-07                    1_GWF-(1,15910)
        553         12          3 -1.14766958E-05                    1_GWF-(1,26623)  1.39640075E-06                    1_GWF-(1,10650)
        554         12          4 -1.11605901E-05                    1_GWF-(1,26218) -2.01043237E-06                    1_GWF-(1,10650)
        555         12          5 -1.01433173E-05                    1_GWF-(1,20572) -1.54837619E-06                    1_GWF-(1,14800)
        556         12          6 -1.18595647E-05                    1_GWF-(1,20226) -1.32190182E-06                    1_GWF-(1,14801)
        557         12          7 -9.76413507E-06                    1_GWF-(1,11428) -1.20547850E-06                    1_GWF-(1,14800)
        558         12          8 -8.41991331E-06                    1_GWF-(1,24321) -1.23995559E-06                    1_GWF-(1,14801)
        559         12          9  7.05058129E-06                    1_GWF-(1,26218)  1.17624087E-06                    1_GWF-(1,14801)
        560         12         10  9.38996944E-06                    1_GWF-(1,26487) -1.02296382E-06                    1_GWF-(1,14801)
        561         12         11  9.53726823E-06                    1_GWF-(1,26486) -8.39995493E-07                    1_GWF-(1,14800)
        562         12         12  8.57599873E-06                    1_GWF-(1,26487)  5.94740728E-07                    1_GWF-(1,10650)
        563         12         13 -1.24345013E-05                    1_GWF-(1,26487) -2.83434923E-07                    1_GWF-(1,10650)
        564         12         14  9.65829251E-06                    1_GWF-(1,26622) -7.37030918E-07                    1_GWF-(1,14800)
        565         12         15  7.20475864E-06                    1_GWF-(1,26649) -9.35811708E-07                    1_GWF-(1,14801)
        566         12         16 -1.02684922E-05                    1_GWF-(1,20207) -1.08975988E-06                    1_GWF-(1,10650)
        567         12         17  8.30332983E-06                    1_GWF-(1,26665)  1.03638763E-06                    1_GWF-(1,10650)
        568         12         18 -1.22127097E-05                    1_GWF-(1,26665) -1.09894941E-06                    1_GWF-(1,10650)
        569         12         19  1.25746692E-05                    1_GWF-(1,26665)  2.84418584E-07                    1_GWF-(1,10650)
        570         12         20 -1.67994068E-05                    1_GWF-(1,26665)  5.64275072E-07                    1_GWF-(1,10650)
        571         12         21 -1.25787004E-05                    1_GWF-(1,26666) -1.28721101E-06                    1_GWF-(1,10650)
        572         12         22 -9.54002638E-06                    1_GWF-(1,20115)  1.43602937E-06                    1_GWF-(1,10650)
        573         12         23 -1.14589140E-05                    1_GWF-(1,20164) -1.07001762E-06                    1_GWF-(1,10650)
        574         12         24 -1.20061641E-05                    1_GWF-(1,20163)  6.86442835E-07                    1_GWF-(1,10650)
        575         12         25  1.17283643E-05                    1_GWF-(1,26543)  2.28558080E-07                     1_GWF-(1,9290)
        576         12         26  1.26061894E-05                    1_GWF-(1,26588)  6.67544439E-07                    1_GWF-(1,10629)
        577         12         27  1.08163612E-05                    1_GWF-(1,26543)  1.22756599E-06                    1_GWF-(1,10650)
        578         12         28  8.06067391E-06                    1_GWF-(1,26588) -1.19484424E-06                    1_GWF-(1,10650)
        579         12         29  7.39024638E-06                    1_GWF-(1,20210)  1.11392080E-06                    1_GWF-(1,10650)
        580         12         30  8.00444328E-06                    1_GWF-(1,26486)  8.75979219E-07                    1_GWF-(1,14801)
        581         12         31 -9.50735169E-06                    1_GWF-(1,26543)  2.77360327E-07                    1_GWF-(1,10481)
        582         12         32 -1.26116339E-05                    1_GWF-(1,26588)  8.77119056E-07                    1_GWF-(1,10650)
        583         12         33 -9.74006693E-06                    1_GWF-(1,26543)  9.40128064E-07                    1_GWF-(1,14801)
        584         12         34  1.01824733E-05                    1_GWF-(1,20216)  1.03073855E-06                    1_GWF-(1,14800)
        585         12         35 -5.97885573E-06                    1_GWF-(1,26420)  1.08649120E-06                    1_GWF-(1,14801)
        586         12         36 -9.41830055E-06                    1_GWF-(1,26422)  1.05548048E-06                    1_GWF-(1,14800)
        587         12         37 -1.08049262E-05                    1_GWF-(1,26350)  9.90246413E-07                    1_GWF-(1,14801)
        588         12         38 -1.19102708E-05                    1_GWF-(1,26422)  6.65386475E-07                    1_GWF-(1,14800)
        589         12         39 -1.10991062E-05                    1_GWF-(1,20569)  8.89335323E-07                    1_GWF-(1,10650)
        590         12         40 -1.07580261E-05                    1_GWF-(1,20608)  5.32091488E-07                    1_GWF-(1,10629)
        591         12         41 -8.87854294E-06                    1_GWF-(1,20606)  5.41350793E-07                    1_GWF-(1,10650)
        592         12         42  7.22645190E-06                    1_GWF-(1,26350)  6.68409371E-07                    1_GWF-(1,14801)
        593         12         43  7.52859933E-06                    1_GWF-(1,26486)  8.28188137E-07                    1_GWF-(1,14800)
        594         12         44  6.96442300E-06                    1_GWF-(1,26544)  9.93751967E-07                    1_GWF-(1,14801)
        595         12         45  9.83092857E-06                    1_GWF-(1,26486)  8.29144939E-07                    1_GWF-(1,14800)
        596         12         46  9.58848188E-06                    1_GWF-(1,26487)  5.50528783E-07                    1_GWF-(1,10650)
        597         12         47  9.76116647E-06                    1_GWF-(1,26486)  2.35537103E-07                    1_GWF-(1,14801)
        598         12         48  8.19773019E-06                    1_GWF-(1,26487)  5.67622883E-07                    1_GWF-(1,14800)
        599         12         49  4.04591769E-06                    1_GWF-(1,26420)  6.83238215E-07                    1_GWF-(1,14801)
        600         12         50 -3.66177683E-06                    1_GWF-(1,26420)  6.00887697E-07                    1_GWF-(1,14800)
        601         13          1  3.16647914E-06                    1_GWF-(1,26420)  1.14563179E-06                    1_GWF-(1,14801)
        602         13          2 -4.47579851E-06                    1_GWF-(1,26543)  7.00458700E-07                    1_GWF-(1,14800)
        603         13          3 -7.02350239E-06                    1_GWF-(1,26487)  3.17878824E-07                    1_GWF-(1,14801)
        604         13          4 -9.05274719E-06                    1_GWF-(1,26486)  5.20815938E-07                    1_GWF-(1,10650)
        605         13          5 -9.39498155E-06                    1_GWF-(1,26487)  6.75320273E-07                    1_GWF-(1,14800)
        606         13          6 -8.54191226E-06                    1_GWF-(1,26486)  8.21079636E-07                    1_GWF-(1,14801)
        607         13          7 -5.61037521E-06                    1_GWF-(1,26544)  6.28214509E-07                    1_GWF-(1,14800)
        608         13          8 -5.06364686E-06                    1_GWF-(1,26486)  4.44430877E-07                    1_GWF-(1,14801)
        609         13          9  4.43471895E-06                    1_GWF-(1,20700)  4.10608454E-07                    1_GWF-(1,10650)
        610         13         10 -5.23015580E-06                    1_GWF-(1,26622)  3.50441176E-07                    1_GWF-(1,10629)
        611         13         11  6.89542035E-06                    1_GWF-(1,26622)  3.07183767E-07                    1_GWF-(1,14801)
        612         13         12  6.20408047E-06                    1_GWF-(1,26649)  4.24603654E-07                    1_GWF-(1,14800)
        613         13         13  5.26521403E-06                    1_GWF-(1,26350)  3.72971837E-07                    1_GWF-(1,14801)
        614         13         14  6.48915108E-06                    1_GWF-(1,26422)  4.74126252E-07                    1_GWF-(1,10650)
        615         13         15  5.72539526E-06                    1_GWF-(1,26350)  2.55316659E-07                    1_GWF-(1,10481)
        616         13         16  5.39416263E-06                    1_GWF-(1,26422)  3.72534761E-07                    1_GWF-(1,14801)
        617         13         17  4.14409602E-06                    1_GWF-(1,26350)  4.37081330E-07                    1_GWF-(1,14800)
        618         13         18 -4.12657378E-06                    1_GWF-(1,20222)  4.63014033E-07                    1_GWF-(1,14801)
        619         13         19 -3.73307225E-06                    1_GWF-(1,20583)  4.28115411E-07                    1_GWF-(1,14800)
        620         13         20 -3.45292512E-06                    1_GWF-(1,21259)  3.86563788E-07                    1_GWF-(1,14801)
        621         13         21 -3.75599069E-06                    1_GWF-(1,26665)  4.01997909E-07                    1_GWF-(1,10650)
        622         13         22  4.97363286E-06                    1_GWF-(1,26665) -2.99151810E-07                    1_GWF-(1,10650)
        623         13         23  4.33453311E-06                    1_GWF-(1,26666)  1.18323692E-07                    1_GWF-(1,14801)
        624         13         24  3.53107564E-06                    1_GWF-(1,26665)  2.41227851E-07                    1_GWF-(1,14800)
        625         13         25  3.84857754E-06                    1_GWF-(1,20221) -3.46400782E-07                    1_GWF-(1,10650)
        626         13         26 -2.94861876E-06                    1_GWF-(1,26588)  4.04959979E-07                    1_GWF-(1,10650)
        627         13         27  3.29248227E-06                    1_GWF-(1,20508) -2.93277769E-07                    1_GWF-(1,10650)
        628         13         28  3.02412684E-06                    1_GWF-(1,20164)  1.49550164E-07                    1_GWF-(1,10650)
        629         13         29 -2.98307031E-06                    1_GWF-(1,26543)  1.10573430E-07                    1_GWF-(1,14800)
        630         13         30 -2.61922645E-06                    1_GWF-(1,20164) -2.91749915E-07                    1_GWF-(1,10650)
        631         13         31 -3.07943813E-06                    1_GWF-(1,20168)  3.60713805E-07                    1_GWF-(1,10650)
        632         13         32 -2.28944784E-06                    1_GWF-(1,20110) -3.73713329E-07                    1_GWF-(1,10650)
        633         13         33  2.17571690E-06                    1_GWF-(1,26622)  2.07451772E-07                    1_GWF-(1,10650)
        634         13         34  2.23143841E-06                    1_GWF-(1,26649) -1.25382100E-07                    1_GWF-(1,14800)
        635         13         35 -2.37507755E-06                    1_GWF-(1,26649) -7.38787255E-08                    1_GWF-(1,10650)
        636         13         36 -2.39461845E-06                    1_GWF-(1,26622) -1.60527236E-07                    1_GWF-(1,14801)
        637         13         37 -1.44260254E-06                    1_GWF-(1,26623) -2.25452015E-07                    1_GWF-(1,10650)
        638         13         38  9.66290360E-07                    1_GWF-(1,23260) -2.15364263E-07                    1_GWF-(1,14801)
        639         14          1 -7.86946081E-07                    1_GWF-(1,26623) -2.07857658E-07                    1_GWF-(1,14800)
 --------------------------------------------------------------------------------------------------------------------------------------


 UBDSV1 SAVING     FLOW-JA-FACE ON UNIT   1020 AT TIME STEP      1, STRESS PERIOD      1
 UBDSV06 SAVING       DATA-SPDIS IN MODEL ML               PACKAGE NPF             CONNECTED TO MODEL ML               PACKAGE NPF              ON UNIT   1020 AT TIME STEP      1, STRESS PERIOD      1
 UBDSV06 SAVING              WEL IN MODEL ML               PACKAGE ML              CONNECTED TO MODEL ML               PACKAGE WEL_0            ON UNIT   1020 AT TIME STEP      1, STRESS PERIOD      1
 UBDSV06 SAVING              DRN IN MODEL ML               PACKAGE ML              CONNECTED TO MODEL ML               PACKAGE DRN_0            ON UNIT   1020 AT TIME STEP      1, STRESS PERIOD      1
 UBDSV06 SAVING              RIV IN MODEL ML               PACKAGE ML              CONNECTED TO MODEL ML               PACKAGE RIV_0            ON UNIT   1020 AT TIME STEP      1, STRESS PERIOD      1
 UBDSV06 SAVING              GHB IN MODEL ML               PACKAGE ML              CONNECTED TO MODEL ML               PACKAGE GHB_0            ON UNIT   1020 AT TIME STEP      1, STRESS PERIOD      1
 UBDSV06 SAVING              RCH IN MODEL ML               PACKAGE ML              CONNECTED TO MODEL ML               PACKAGE RCHA_0           ON UNIT   1020 AT TIME STEP      1, STRESS PERIOD      1

 HEAD WILL BE SAVED ON UNIT 1021 AT END OF TIME STEP    1, STRESS PERIOD    1


  VOLUME BUDGET FOR ENTIRE MODEL AT END OF TIME STEP    1, STRESS PERIOD   1
  ---------------------------------------------------------------------------------------------------

     CUMULATIVE VOLUME      L**3       RATES FOR THIS TIME STEP      L**3/T          PACKAGE NAME    
     ------------------                 ------------------------                     ----------------

           IN:                                      IN:
           ---                                      ---
                 WEL =           0.0000                   WEL =           0.0000     WEL_0           
                 DRN =           0.0000                   DRN =           0.0000     DRN_0           
                 RIV =           8.5903                   RIV =           0.9545     RIV_0           
                 GHB =          15.6174                   GHB =           1.7353     GHB_0           
                 RCH =           0.7437                   RCH =       8.2636E-02     RCHA_0          

            TOTAL IN =          24.9514              TOTAL IN =           2.7724

          OUT:                                     OUT:
          ----                                     ----
                 WEL =           1.4412                   WEL =           0.1601     WEL_0           
                 DRN =           1.7117                   DRN =           0.1902     DRN_0           
                 RIV =          21.7889                   RIV =           2.4210     RIV_0           
                 GHB =       9.6946E-03                   GHB =       1.0772E-03     GHB_0           
                 RCH =           0.0000                   RCH =           0.0000     RCHA_0          

           TOTAL OUT =          24.9514             TOTAL OUT =           2.7724

            IN - OUT =      -3.5162E-05              IN - OUT =      -3.9069E-06

 PERCENT DISCREPANCY =          -0.00     PERCENT DISCREPANCY =          -0.00




         TIME SUMMARY AT END OF TIME STEP    1 IN STRESS PERIOD    1
                    SECONDS     MINUTES      HOURS       DAYS        YEARS
                    -----------------------------------------------------------
   TIME STEP LENGTH  9.0000     0.15000     2.50000E-03 1.04167E-04 2.85193E-07
 STRESS PERIOD TIME  9.0000     0.15000     2.50000E-03 1.04167E-04 2.85193E-07
         TOTAL TIME  9.0000     0.15000     2.50000E-03 1.04167E-04 2.85193E-07


end timestep

