                                   MODFLOW 6
                U.S. GEOLOGICAL SURVEY MODULAR HYDROLOGIC MODEL
                          GROUNDWATER FLOW MODEL (GWF)
                            VERSION 6.2.2 07/30/2021

   MODFLOW 6 compiled Jul 31 2021 14:22:53 with IFORT compiler (ver. 19.10.3)

This software has been approved for release by the U.S. Geological 
Survey (USGS). Although the software has been subjected to rigorous 
review, the USGS reserves the right to update the software as needed 
pursuant to further analysis and review. No warranty, expressed or 
implied, is made by the USGS or the U.S. Government as to the 
functionality of the software and related material nor shall the 
fact of release constitute any such warranty. Furthermore, the 
software is released on condition that neither the USGS nor the U.S. 
Government shall be held liable for any damages resulting from its 
authorized or unauthorized use. Also refer to the USGS Water 
Resources Software User Rights Notice for complete use, copyright, 
and distribution information.


System command used to initiate simulation:
mf6

MODFLOW was compiled using uniform precision.

Real Variables
  KIND: 8
  TINY (smallest non-zero value):    2.225074-308
  HUGE (largest value):    1.797693+308
  PRECISION: 15
  BIT SIZE: 64

Integer Variables
  KIND: 4
  HUGE (largest value): 2147483647
  BIT SIZE: 32

Long Integer Variables
  KIND: 8
  HUGE (largest value): 9223372036854775807
  BIT SIZE: 64

Logical Variables
  KIND: 4
  BIT SIZE: 32
 

 OPENED ./ml.disv
 FILE TYPE:DISV6                  UNIT 1005   STATUS:OLD                 
 FORMAT:FORMATTED              ACCESS:SEQUENTIAL          
 ACTION:READ                


 OPENED ./ml.ic
 FILE TYPE:IC6                    UNIT 1006   STATUS:OLD                 
 FORMAT:FORMATTED              ACCESS:SEQUENTIAL          
 ACTION:READ                


 OPENED ./ml.npf
 FILE TYPE:NPF6                   UNIT 1007   STATUS:OLD                 
 FORMAT:FORMATTED              ACCESS:SEQUENTIAL          
 ACTION:READ                


 OPENED ./ml.ghb
 FILE TYPE:GHB6                   UNIT 1008   STATUS:OLD                 
 FORMAT:FORMATTED              ACCESS:SEQUENTIAL          
 ACTION:READ                


 OPENED ./ml.rcha
 FILE TYPE:RCH6                   UNIT 1009   STATUS:OLD                 
 FORMAT:FORMATTED              ACCESS:SEQUENTIAL          
 ACTION:READ                


 OPENED ./ml.obs
 FILE TYPE:OBS6                   UNIT 1010   STATUS:OLD                 
 FORMAT:FORMATTED              ACCESS:SEQUENTIAL          
 ACTION:READ                


 OPENED ./ml.oc
 FILE TYPE:OC6                    UNIT 1011   STATUS:OLD                 
 FORMAT:FORMATTED              ACCESS:SEQUENTIAL          
 ACTION:READ                


 OPENED ml.wel
 FILE TYPE:WEL6                   UNIT 1012   STATUS:OLD                 
 FORMAT:FORMATTED              ACCESS:SEQUENTIAL          
 ACTION:READ                


 OPENED ml.drn
 FILE TYPE:DRN6                   UNIT 1013   STATUS:OLD                 
 FORMAT:FORMATTED              ACCESS:SEQUENTIAL          
 ACTION:READ                


 OPENED ml.riv
 FILE TYPE:RIV6                   UNIT 1014   STATUS:OLD                 
 FORMAT:FORMATTED              ACCESS:SEQUENTIAL          
 ACTION:READ                


 DISV -- VERTEX GRID DISCRETIZATION PACKAGE, VERSION 1 : 12/23/2015 - INPUT READ FROM UNIT 1005


 # File generated by Flopy version 3.3.5 on 05/30/2022 at 17:41:07.

 PROCESSING DISCRETIZATION OPTIONS
    MODEL LENGTH UNIT IS METERS
    XORIGIN SPECIFIED AS     405575.681000000    
    YORIGIN SPECIFIED AS     6423306.54000000    
 END OF DISCRETIZATION OPTIONS

 PROCESSING DISCRETIZATION DIMENSIONS
   NLAY = 1
   NCPL = 26674
   NVERT = 27090
 END OF DISCRETIZATION DIMENSIONS

 PROCESSING GRIDDATA
 END PROCESSING GRIDDATA

 PROCESSING VERTICES
   SUCCESSFULLY READ 27090 (X,Y) COORDINATES
   MINIMUM X COORDINATE =     405575.681000000    
   MAXIMUM X COORDINATE =     413975.681000000    
   MINIMUM Y COORDINATE =     6423306.54000000    
   MAXIMUM Y COORDINATE =     6432506.54000000    
 END PROCESSING VERTICES

 PROCESSING CELL2D
   SUCCESSFULLY READ 26674 CELL2D INFORMATION ENTRIES
   MINIMUM X CELL CENTER =     405675.681000000    
   MAXIMUM X CELL CENTER =     413875.681000000    
   MINIMUM Y CELL CENTER =     6423406.54000000    
   MAXIMUM Y CELL CENTER =     6432406.54000000    
   MAXIMUM NUMBER OF CELL2D VERTICES IS 6 FOR CELL 208
 END PROCESSING VERTICES

 NPF -- NODE PROPERTY FLOW PACKAGE, VERSION 1, 3/30/2015 INPUT READ FROM UNIT 1007


 # File generated by Flopy version 3.3.5 on 05/30/2022 at 17:41:10.
 PROCESSING NPF OPTIONS
    CELL-BY-CELL FLOW INFORMATION WILL BE SAVED TO BINARY FILE WHENEVER ICBCFL IS NOT ZERO.
    SPECIFIC DISCHARGE WILL BE CALCULATED AT CELL CENTERS AND WRITTEN TO DATA-SPDIS IN BUDGET FILE WHEN REQUESTED.
 END OF NPF OPTIONS

 WEL   -- WEL PACKAGE, VERSION 8, 2/22/2014 INPUT READ FROM UNIT 1012
 # File generated by Flopy version 3.3.5 on 05/30/2022 at 17:41:10.

 PROCESSING WEL OPTIONS
    WEL BOUNDARIES HAVE NAMES IN LAST COLUMN.
    FLOWS WILL BE SAVED TO BUDGET FILE SPECIFIED IN OUTPUT CONTROL
 END OF WEL OPTIONS

 PROCESSING WEL DIMENSIONS
    MAXBOUND =       9
 END OF WEL DIMENSIONS

 DRN   -- DRN PACKAGE, VERSION 8, 2/22/2014 INPUT READ FROM UNIT 1013
 # File generated by Flopy version 3.3.5 on 05/30/2022 at 17:41:10.

 PROCESSING DRN OPTIONS
    DRN BOUNDARIES HAVE NAMES IN LAST COLUMN.
    FLOWS WILL BE SAVED TO BUDGET FILE SPECIFIED IN OUTPUT CONTROL

 OPENED ml.drn.obs
 FILE TYPE:OBS   UNIT 1016   STATUS:OLD                 
 FORMAT:FORMATTED              ACCESS:SEQUENTIAL          
 ACTION:READ                

 END OF DRN OPTIONS

 PROCESSING DRN DIMENSIONS
    MAXBOUND =     133
 END OF DRN DIMENSIONS

 RIV   -- RIV PACKAGE, VERSION 8, 2/22/2014 INPUT READ FROM UNIT 1014
 # File generated by Flopy version 3.3.5 on 05/30/2022 at 17:41:10.

 PROCESSING RIV OPTIONS
    AUXILIARY RIV VARIABLE: FID             
    RIV BOUNDARIES HAVE NAMES IN LAST COLUMN.
    FLOWS WILL BE SAVED TO BUDGET FILE SPECIFIED IN OUTPUT CONTROL
 END OF RIV OPTIONS

 PROCESSING RIV DIMENSIONS
    MAXBOUND =     794
 END OF RIV DIMENSIONS

 GHB   -- GHB PACKAGE, VERSION 8, 2/22/2014 INPUT READ FROM UNIT 1008
 # File generated by Flopy version 3.3.5 on 05/30/2022 at 17:41:10.

 PROCESSING GHB OPTIONS
    GHB BOUNDARIES HAVE NAMES IN LAST COLUMN.
    FLOWS WILL BE SAVED TO BUDGET FILE SPECIFIED IN OUTPUT CONTROL
 END OF GHB OPTIONS

 PROCESSING GHB DIMENSIONS
    MAXBOUND =     153
 END OF GHB DIMENSIONS

 RCH   -- RCH PACKAGE, VERSION 8, 2/22/2014 INPUT READ FROM UNIT 1009
 # File generated by Flopy version 3.3.5 on 05/30/2022 at 17:41:10.

 PROCESSING RCH OPTIONS
    RECHARGE INPUT WILL BE READ AS ARRAY(S).
    FLOWS WILL BE SAVED TO BUDGET FILE SPECIFIED IN OUTPUT CONTROL
 END OF RCH OPTIONS

 IC -- INITIAL CONDITIONS PACKAGE, VERSION 8, 3/28/2015 INPUT READ FROM UNIT 1006
 # File generated by Flopy version 3.3.5 on 05/30/2022 at 17:41:10.
 PROCESSING GRIDDATA

     INITIAL HEAD =   15.00000    
 END PROCESSING GRIDDATA
 PROCESSING GRIDDATA

                ICELLTYPE = 0

 OPENED ../com_ext/k.txt
 FILE TYPE:OPEN/CLOSE   UNIT 1017   STATUS:OLD                 
 FORMAT:FORMATTED              ACCESS:SEQUENTIAL          
 ACTION:READ                

 K33 not provided.  Assuming K33 = K.
 K22 not provided.  Assuming K22 = K.
 END PROCESSING GRIDDATA

The observation utility is active for "ML"
 # File generated by Flopy version 3.3.5 on 05/30/2022 at 17:41:10.

Processing observation options:

Text output number of digits of precision set to: 10
The PRINT_INPUT option has been specified.


 OBSERVATIONS READ FROM FILE "ml.obs"
 ----------------------------------------------------------------------------------------------------------------------------------------------------------------------------------------------------------------------------
 NAME                                     TYPE                                       TIME         LOCATION DATA                              OUTPUT FILENAME                                                                 
 ----------------------------------------------------------------------------------------------------------------------------------------------------------------------------------------------------------------------------
 PRG                                      CONTINUOUS  HEAD                           ALL TIMES    "1 16523"                                  sim/hds.csv                                                                     
 P8                                       CONTINUOUS  HEAD                           ALL TIMES    "1 10323"                                  sim/hds.csv                                                                     
 P24                                      CONTINUOUS  HEAD                           ALL TIMES    "1 9594"                                   sim/hds.csv                                                                     
 P25                                      CONTINUOUS  HEAD                           ALL TIMES    "1 13966"                                  sim/hds.csv                                                                     
 P32                                      CONTINUOUS  HEAD                           ALL TIMES    "1 15787"                                  sim/hds.csv                                                                     
 P33                                      CONTINUOUS  HEAD                           ALL TIMES    "1 15825"                                  sim/hds.csv                                                                     
 PF                                       CONTINUOUS  HEAD                           ALL TIMES    "1 21048"                                  sim/hds.csv                                                                     
 PH                                       CONTINUOUS  HEAD                           ALL TIMES    "1 20781"                                  sim/hds.csv                                                                     
 PZHM1                                    CONTINUOUS  HEAD                           ALL TIMES    "1 14521"                                  sim/hds.csv                                                                     
 P26                                      CONTINUOUS  HEAD                           ALL TIMES    "1 13141"                                  sim/hds.csv                                                                     
 P27                                      CONTINUOUS  HEAD                           ALL TIMES    "1 8465"                                   sim/hds.csv                                                                     
 P28                                      CONTINUOUS  HEAD                           ALL TIMES    "1 8924"                                   sim/hds.csv                                                                     
 P29                                      CONTINUOUS  HEAD                           ALL TIMES    "1 4524"                                   sim/hds.csv                                                                     
 P30                                      CONTINUOUS  HEAD                           ALL TIMES    "1 5255"                                   sim/hds.csv                                                                     
 R20                                      CONTINUOUS  HEAD                           ALL TIMES    "1 10676"                                  sim/hds.csv                                                                     
 R21                                      CONTINUOUS  HEAD                           ALL TIMES    "1 10403"                                  sim/hds.csv                                                                     
 P34                                      CONTINUOUS  HEAD                           ALL TIMES    "1 15131"                                  sim/hds.csv                                                                     
 P37                                      CONTINUOUS  HEAD                           ALL TIMES    "1 15755"                                  sim/hds.csv                                                                     
 P38                                      CONTINUOUS  HEAD                           ALL TIMES    "1 15045"                                  sim/hds.csv                                                                     
 P39                                      CONTINUOUS  HEAD                           ALL TIMES    "1 9637"                                   sim/hds.csv                                                                     
 P40                                      CONTINUOUS  HEAD                           ALL TIMES    "1 9312"                                   sim/hds.csv                                                                     
 AP1                                      CONTINUOUS  HEAD                           ALL TIMES    "1 9702"                                   sim/hds.csv                                                                     
 RCK1                                     CONTINUOUS  HEAD                           ALL TIMES    "1 15900"                                  sim/hds.csv                                                                     
 RCK2                                     CONTINUOUS  HEAD                           ALL TIMES    "1 15199"                                  sim/hds.csv                                                                     
 P23                                      CONTINUOUS  HEAD                           ALL TIMES    "1 6409"                                   sim/hds.csv                                                                     
 ----------------------------------------------------------------------------------------------------------------------------------------------------------------------------------------------------------------------------


    BINARY GRID INFORMATION WILL BE WRITTEN TO:
      UNIT NUMBER: 1019
      FILE NAME: /srv/common/ptrack/case_study/pst/ml_09/./ml.disv.grb

 OPENED /srv/common/ptrack/case_study/pst/ml_09/./ml.disv.grb
 FILE TYPE:DATA(BINARY)   UNIT 1019   STATUS:REPLACE             
 FORMAT:UNFORMATTED            ACCESS:STREAM              
 ACTION:READWRITE           

      THE LAST TIME STEP WILL BE PRINTED
      THE LAST TIME STEP WILL BE PRINTED
 # File generated by Flopy version 3.3.5 on 05/30/2022 at 17:41:10.

 PROCESSING OC OPTIONS

    BUDGET INFORMATION WILL BE WRITTEN TO:
      UNIT NUMBER: 1020
      FILE NAME: ml.cbc

 OPENED ml.cbc
 FILE TYPE:DATA(BINARY)   UNIT 1020   STATUS:REPLACE             
 FORMAT:UNFORMATTED            ACCESS:STREAM              
 ACTION:READWRITE           

    HEAD INFORMATION WILL BE WRITTEN TO:
      UNIT NUMBER: 1021
      FILE NAME: ml.hds

 OPENED ml.hds
 FILE TYPE:DATA(BINARY)   UNIT 1021   STATUS:REPLACE             
 FORMAT:UNFORMATTED            ACCESS:STREAM              
 ACTION:READWRITE           

 END OF OC OPTIONS

The observation utility is active for "DRN_0"
 # File generated by Flopy version 3.3.5 on 05/30/2022 at 17:41:10.

Processing observation options:



start timestep kper="1" kstp="1" mode="normal"


 BEGIN READING OUTPUT CONTROL FOR STRESS PERIOD 1
      THE LAST TIME STEP WILL BE SAVED
      THE LAST TIME STEP WILL BE SAVED

 END READING OUTPUT CONTROL FOR STRESS PERIOD 1

 OPENED ext/wel_spd_1.txt
 FILE TYPE:OPEN/CLOSE   UNIT 1023   STATUS:OLD                 
 FORMAT:FORMATTED              ACCESS:SEQUENTIAL          
 ACTION:READ                


 OPENED ext/drn_spd_1.txt
 FILE TYPE:OPEN/CLOSE   UNIT 1024   STATUS:OLD                 
 FORMAT:FORMATTED              ACCESS:SEQUENTIAL          
 ACTION:READ                


 OPENED ext/riv_spd_1.txt
 FILE TYPE:OPEN/CLOSE   UNIT 1025   STATUS:OLD                 
 FORMAT:FORMATTED              ACCESS:SEQUENTIAL          
 ACTION:READ                


 OPENED ../com_ext/ghb_spd_1.txt
 FILE TYPE:OPEN/CLOSE   UNIT 1026   STATUS:OLD                 
 FORMAT:FORMATTED              ACCESS:SEQUENTIAL          
 ACTION:READ                


 OPENED ../com_ext/rech_spd_1.txt
 FILE TYPE:OPEN/CLOSE   UNIT 1027   STATUS:OLD                 
 FORMAT:FORMATTED              ACCESS:SEQUENTIAL          
 ACTION:READ                


 SLN_1 INNER ITERATION SUMMARY
 --------------------------------------------------------------------------------------------------------------------------------------
      TOTAL      OUTER      INNER                                                            MAXIMUM                                   
  ITERATION  ITERATION  ITERATION  MAXIMUM CHANGE      MAXIMUM CHANGE MODEL-(CELLID)        RESIDUAL    MAXIMUM RESIDUAL MODEL-(CELLID)
 --------------------------------------------------------------------------------------------------------------------------------------
          1          1          1       14.922062                    1_GWF-(1,26517)      0.58574108                    1_GWF-(1,11179)
          2          1          2       16.725696                    1_GWF-(1,26516)     -0.40776343                    1_GWF-(1,11179)
          3          1          3       20.978092                    1_GWF-(1,26563)     -0.33712616                    1_GWF-(1,11161)
          4          1          4       21.063278                    1_GWF-(1,26513)      0.33556014                    1_GWF-(1,11178)
          5          1          5       16.332938                    1_GWF-(1,26647)     -0.28037670                    1_GWF-(1,11208)
          6          1          6       20.182192                    1_GWF-(1,26649)     -0.30573714                    1_GWF-(1,11207)
          7          1          7       17.415122                    1_GWF-(1,26622)      0.24186481                    1_GWF-(1,11207)
          8          1          8       11.684628                    1_GWF-(1,26623)     -0.17685292                    1_GWF-(1,11207)
          9          1          9       10.740001                    1_GWF-(1,26589)      0.10892931                    1_GWF-(1,10957)
         10          1         10       9.9302537                    1_GWF-(1,26486)     -0.14324615                    1_GWF-(1,11158)
         11          1         11       9.3498010                    1_GWF-(1,26544)     -0.15531642                    1_GWF-(1,11207)
         12          1         12       7.8221920                    1_GWF-(1,26420)      0.11466548                    1_GWF-(1,11153)
         13          1         13       6.6426715                    1_GWF-(1,26422)  6.78370846E-02                    1_GWF-(1,11194)
         14          1         14      -6.2308593                    1_GWF-(1,26622)     -0.10078953                    1_GWF-(1,11153)
         15          1         15      -5.2649002                    1_GWF-(1,26623) -6.70696959E-02                    1_GWF-(1,11194)
         16          1         16      -4.3316353                    1_GWF-(1,26622)  8.54300823E-02                    1_GWF-(1,11180)
         17          1         17      -4.6576910                    1_GWF-(1,26588) -8.31216339E-02                    1_GWF-(1,11153)
         18          1         18      -5.6526501                    1_GWF-(1,26350) -8.55362322E-02                    1_GWF-(1,11194)
         19          1         19      -6.8567543                    1_GWF-(1,26588)  7.27674093E-02                    1_GWF-(1,11194)
         20          1         20      -5.8954310                    1_GWF-(1,26543) -4.86143051E-02                    1_GWF-(1,11155)
         21          1         21      -4.7173212                    1_GWF-(1,26487) -7.45725872E-02                    1_GWF-(1,11194)
         22          1         22      -5.4055503                    1_GWF-(1,26486)  5.49866864E-02                    1_GWF-(1,11200)
         23          1         23      -4.6023711                    1_GWF-(1,26487)  4.93811789E-02                    1_GWF-(1,11151)
         24          1         24      -4.2747213                    1_GWF-(1,26486) -4.57351404E-02                    1_GWF-(1,11194)
         25          1         25       3.9502230                    1_GWF-(1,26420) -4.79507580E-02                    1_GWF-(1,11109)
         26          1         26       4.4329494                    1_GWF-(1,26487)  4.83556907E-02                    1_GWF-(1,11109)
         27          1         27       4.0699886                    1_GWF-(1,26420)  4.01369441E-02                    1_GWF-(1,11108)
         28          1         28       2.4375080                    1_GWF-(1,26487) -4.01915561E-02                    1_GWF-(1,11195)
         29          1         29       2.1647931                    1_GWF-(1,26588)  4.58247084E-02                    1_GWF-(1,11109)
         30          1         30       2.9432534                    1_GWF-(1,26623)  4.77511633E-02                    1_GWF-(1,11110)
         31          1         31       2.5981026                    1_GWF-(1,26586) -4.23385290E-02                    1_GWF-(1,11150)
         32          1         32       2.2355485                    1_GWF-(1,26648) -3.47573102E-02                    1_GWF-(1,11065)
         33          1         33      -2.0814168                    1_GWF-(1,26422)  2.65295049E-02                    1_GWF-(1,11148)
         34          1         34       2.0647928                    1_GWF-(1,26665) -3.02976664E-02                    1_GWF-(1,11108)
         35          1         35      -1.8794970                    1_GWF-(1,26422) -3.06495251E-02                    1_GWF-(1,11158)
         36          1         36      -1.5131704                    1_GWF-(1,26350)  3.15303919E-02                    1_GWF-(1,11065)
         37          1         37       1.4729996                    1_GWF-(1,26350)  3.62344691E-02                    1_GWF-(1,11200)
         38          1         38       1.2281175                    1_GWF-(1,26422)  3.71348918E-02                    1_GWF-(1,11203)
         39          1         39      -1.4295960                    1_GWF-(1,26649)  3.62019856E-02                    1_GWF-(1,11200)
         40          1         40      -1.1821279                    1_GWF-(1,26648) -3.14516524E-02                    1_GWF-(1,11206)
         41          1         41     -0.95404668                    1_GWF-(1,26649) -2.43270113E-02                    1_GWF-(1,11196)
         42          1         42     -0.74756824                    1_GWF-(1,26648) -2.41956159E-02                    1_GWF-(1,11195)
         43          1         43     -0.72168052                    1_GWF-(1,26586)  2.74527094E-02                    1_GWF-(1,11195)
         44          1         44     -0.76461763                    1_GWF-(1,26543)  2.47613856E-02                    1_GWF-(1,11112)
         45          1         45     -0.63295058                    1_GWF-(1,26542)  2.33865270E-02                    1_GWF-(1,11158)
         46          1         46     -0.85142825                    1_GWF-(1,26218)  3.13156127E-02                    1_GWF-(1,11153)
         47          1         47      -1.1865642                    1_GWF-(1,26217) -2.71140723E-02                    1_GWF-(1,11153)
         48          1         48      -1.3130267                    1_GWF-(1,26218) -2.07352261E-02                    1_GWF-(1,11152)
         49          1         49      -1.2491202                    1_GWF-(1,26217) -2.22880469E-02                    1_GWF-(1,11150)
         50          1         50      -1.1488216                    1_GWF-(1,26218) -2.17597634E-02                    1_GWF-(1,11153)
         51          2          1      -97.903444                    1_GWF-(1,26519)     -0.18871027                    1_GWF-(1,26458)
         52          2          2      -36.679295                    1_GWF-(1,26513) -5.27328915E-02                    1_GWF-(1,26516)
         53          2          3      -20.782236                    1_GWF-(1,26637)  5.27899036E-02                    1_GWF-(1,26516)
         54          2          4      -22.161036                    1_GWF-(1,26665) -1.93243823E-02                    1_GWF-(1,26519)
         55          2          5      -12.250988                    1_GWF-(1,26622)  2.01297913E-02                    1_GWF-(1,26519)
         56          2          6      -11.460682                    1_GWF-(1,26589)  1.45693322E-02                    1_GWF-(1,26516)
         57          2          7      -9.9745160                    1_GWF-(1,26543) -1.18716409E-02                    1_GWF-(1,26516)
         58          2          8      -8.0077305                    1_GWF-(1,26486)  8.95931124E-03                    1_GWF-(1,26519)
         59          2          9      -5.3535421                    1_GWF-(1,26487)  6.70096165E-03                    1_GWF-(1,26665)
         60          2         10      -4.6180201                    1_GWF-(1,26421) -5.78298338E-03                    1_GWF-(1,26665)
         61          2         11      -4.0105406                    1_GWF-(1,26350)  4.33571493E-03                    1_GWF-(1,26519)
         62          2         12      -3.0225226                    1_GWF-(1,26217)  3.53353841E-03                    1_GWF-(1,26516)
         63          2         13      -1.5615329                    1_GWF-(1,26622) -2.35495729E-03                    1_GWF-(1,26622)
         64          2         14      -1.2609788                    1_GWF-(1,26623) -2.22625284E-03                    1_GWF-(1,26563)
         65          2         15      -1.1774752                    1_GWF-(1,26622)  3.18511815E-03                    1_GWF-(1,26516)
         66          2         16      -1.5722078                    1_GWF-(1,25730)  4.09635335E-03                    1_GWF-(1,26599)
         67          2         17       1.3839899                    1_GWF-(1,26350) -2.94363893E-03                    1_GWF-(1,26563)
         68          2         18       1.3284928                    1_GWF-(1,26422) -1.98979407E-03                    1_GWF-(1,26588)
         69          2         19       1.2091344                    1_GWF-(1,26588)  1.95655307E-03                    1_GWF-(1,26588)
         70          2         20       1.0257917                    1_GWF-(1,26543) -2.32216533E-03                    1_GWF-(1,26563)
         71          2         21       1.0883984                    1_GWF-(1,26544)  1.96691735E-03                    1_GWF-(1,14801)
         72          2         22       1.1668239                    1_GWF-(1,26543)  2.45208678E-03                    1_GWF-(1,26601)
         73          2         23     -0.89667403                    1_GWF-(1,26218) -2.70339167E-03                    1_GWF-(1,26563)
         74          2         24      -1.4650689                    1_GWF-(1,26487)  2.66393805E-03                    1_GWF-(1,26486)
         75          2         25      -1.6486778                    1_GWF-(1,26486)  2.70110946E-03                    1_GWF-(1,26563)
         76          2         26      -1.5744714                    1_GWF-(1,26487) -2.74638937E-03                    1_GWF-(1,26563)
         77          2         27     -0.94235428                    1_GWF-(1,26420) -1.89271664E-03                    1_GWF-(1,26562)
         78          2         28      0.86526386                    1_GWF-(1,26217)  2.16743035E-03                    1_GWF-(1,26563)
         79          2         29      0.67623048                    1_GWF-(1,26218) -1.73313806E-03                    1_GWF-(1,26563)
         80          2         30      0.68544534                    1_GWF-(1,26420) -1.98674886E-03                    1_GWF-(1,26562)
         81          2         31     -0.47594484                    1_GWF-(1,26674)  1.35875060E-03                    1_GWF-(1,26562)
         82          2         32     -0.45849278                    1_GWF-(1,26421) -1.39693869E-03                    1_GWF-(1,26516)
         83          2         33     -0.57312515                    1_GWF-(1,26350) -1.61038744E-03                    1_GWF-(1,26562)
         84          2         34      0.58482056                    1_GWF-(1,26350)  1.87304415E-03                    1_GWF-(1,26562)
         85          2         35      0.86416661                    1_GWF-(1,26422) -1.30182659E-03                    1_GWF-(1,10966)
         86          2         36      0.55815106                    1_GWF-(1,26350) -1.70878564E-03                    1_GWF-(1,26562)
         87          2         37     -0.53274975                    1_GWF-(1,26350)  1.96115223E-03                    1_GWF-(1,26562)
         88          2         38     -0.34676813                    1_GWF-(1,26422)  1.34757521E-03                    1_GWF-(1,14960)
         89          2         39     -0.34298211                    1_GWF-(1,26544)  1.62356311E-03                    1_GWF-(1,14961)
         90          2         40     -0.37302638                    1_GWF-(1,26486) -2.03002835E-03                    1_GWF-(1,10966)
         91          2         41     -0.26015545                    1_GWF-(1,26420)  2.06791194E-03                    1_GWF-(1,14800)
         92          2         42     -0.20885458                    1_GWF-(1,26588)  2.42872874E-03                    1_GWF-(1,14801)
         93          2         43     -0.25652537                    1_GWF-(1,25852)  3.14838966E-03                    1_GWF-(1,10966)
         94          2         44     -0.23255698                    1_GWF-(1,26196)  3.15275166E-03                    1_GWF-(1,14801)
         95          2         45     -0.21198894                    1_GWF-(1,26420)  5.13306646E-03                    1_GWF-(1,10966)
         96          2         46     -0.19725722                    1_GWF-(1,26569)  4.08038159E-03                    1_GWF-(1,10961)
         97          2         47      0.18713544                    1_GWF-(1,26193)  6.21766176E-03                    1_GWF-(1,10966)
         98          2         48      0.14607223                    1_GWF-(1,26398)  4.60802174E-03                    1_GWF-(1,10961)
         99          2         49      0.14453059                    1_GWF-(1,22773)  6.01959953E-03                    1_GWF-(1,10966)
        100          2         50      0.14836929                    1_GWF-(1,26196)  4.30902287E-03                    1_GWF-(1,10961)
        101          3          1  8.23575542E-02                    1_GWF-(1,22783) -8.33752253E-03                    1_GWF-(1,11936)
        102          3          2      0.15062700                    1_GWF-(1,22783)  5.00291278E-03                    1_GWF-(1,10961)
        103          3          3      0.10976087                    1_GWF-(1,26649)  8.66769846E-03                    1_GWF-(1,11936)
        104          3          4     -0.15083168                    1_GWF-(1,22783) -5.70384937E-03                    1_GWF-(1,11936)
        105          3          5      0.14438054                    1_GWF-(1,26588)  4.35767152E-03                    1_GWF-(1,10966)
        106          3          6      0.11934410                    1_GWF-(1,26194)  3.36617945E-03                    1_GWF-(1,14801)
        107          3          7     -0.12555903                    1_GWF-(1,26543)  3.74440603E-03                    1_GWF-(1,10966)
        108          3          8     -0.11019825                    1_GWF-(1,26421)  2.04511574E-03                    1_GWF-(1,11936)
        109          3          9      0.11280238                    1_GWF-(1,26588)  2.30262322E-03                    1_GWF-(1,10966)
        110          3         10  9.29312450E-02                    1_GWF-(1,26420) -2.34329663E-03                    1_GWF-(1,14800)
        111          3         11      0.12716814                    1_GWF-(1,26486) -2.03395542E-03                    1_GWF-(1,14801)
        112          3         12      0.10626670                    1_GWF-(1,26648) -1.67652264E-03                    1_GWF-(1,14800)
        113          3         13     -0.10382512                    1_GWF-(1,26672) -1.38343934E-03                    1_GWF-(1,14801)
        114          3         14 -9.69455663E-02                    1_GWF-(1,26622)  1.17725282E-03                    1_GWF-(1,11936)
        115          3         15     -0.11468565                    1_GWF-(1,26350)  1.10088931E-03                    1_GWF-(1,15940)
        116          3         16     -0.13018485                    1_GWF-(1,26422) -9.82404446E-04                    1_GWF-(1,15940)
        117          3         17      0.10202298                    1_GWF-(1,26422) -1.11414999E-03                    1_GWF-(1,10966)
        118          3         18      0.12346228                    1_GWF-(1,26350)  8.82657972E-04                    1_GWF-(1,10966)
        119          3         19      0.11629298                    1_GWF-(1,26422)  9.55516946E-04                    1_GWF-(1,14801)
        120          3         20     -0.11068338                    1_GWF-(1,26422)  9.14521832E-04                    1_GWF-(1,14800)
        121          3         21 -8.53913308E-02                    1_GWF-(1,26420)  8.96068486E-04                    1_GWF-(1,14801)
        122          3         22     -0.10472684                    1_GWF-(1,26672)  6.54102960E-04                    1_GWF-(1,14800)
        123          3         23  7.95804996E-02                    1_GWF-(1,26648) -6.30030953E-04                    1_GWF-(1,10961)
        124          3         24      0.12132406                    1_GWF-(1,26588) -8.76697794E-04                    1_GWF-(1,10966)
        125          3         25      0.14404368                    1_GWF-(1,26543) -7.70188709E-04                    1_GWF-(1,14801)
        126          3         26      0.13828007                    1_GWF-(1,26588) -5.38464398E-04                    1_GWF-(1,10965)
        127          3         27      0.11995567                    1_GWF-(1,26420) -1.13066043E-03                    1_GWF-(1,10966)
        128          3         28 -7.59894939E-02                    1_GWF-(1,26586)  9.00104141E-04                    1_GWF-(1,14800)
        129          3         29 -9.46680277E-02                    1_GWF-(1,26543) -1.31941327E-03                    1_GWF-(1,10966)
        130          3         30 -9.40345739E-02                    1_GWF-(1,26420) -1.01949291E-03                    1_GWF-(1,14801)
        131          3         31     -0.11225586                    1_GWF-(1,26487)  7.39772015E-04                    1_GWF-(1,14801)
        132          3         32 -8.99322080E-02                    1_GWF-(1,26420) -3.37153609E-04                    1_GWF-(1,10966)
        133          3         33 -7.32667447E-02                    1_GWF-(1,26422)  9.13559199E-04                    1_GWF-(1,14800)
        134          3         34 -5.51522791E-02                    1_GWF-(1,26350)  1.28151313E-03                    1_GWF-(1,14801)
        135          3         35  4.92245612E-02                    1_GWF-(1,26623)  1.22164032E-03                    1_GWF-(1,14800)
        136          3         36 -5.21119553E-02                    1_GWF-(1,26623)  9.59172599E-04                    1_GWF-(1,14801)
        137          3         37  5.74552575E-02                    1_GWF-(1,26623)  3.56002890E-04                    1_GWF-(1,14800)
        138          3         38  6.44685047E-02                    1_GWF-(1,26622)  7.36924955E-04                    1_GWF-(1,14800)
        139          3         39  5.29817039E-02                    1_GWF-(1,22786)  1.32711421E-03                    1_GWF-(1,14801)
        140          3         40 -4.68313008E-02                    1_GWF-(1,26665) -1.52198456E-03                    1_GWF-(1,14801)
        141          3         41  7.35918145E-02                    1_GWF-(1,26665)  1.03383692E-03                    1_GWF-(1,14801)
        142          3         42 -9.30719996E-02                    1_GWF-(1,26665)  2.75449979E-04                    1_GWF-(1,10961)
        143          3         43 -9.21293191E-02                    1_GWF-(1,26666)  1.43421236E-03                    1_GWF-(1,14800)
        144          3         44  5.56992699E-02                    1_GWF-(1,26588)  2.06913071E-03                    1_GWF-(1,14801)
        145          3         45  8.34261444E-02                    1_GWF-(1,26665) -2.77929169E-03                    1_GWF-(1,14801)
        146          3         46  6.64734105E-02                    1_GWF-(1,26666) -3.00341679E-03                    1_GWF-(1,14800)
        147          3         47 -4.57787518E-02                    1_GWF-(1,26482) -2.95408129E-03                    1_GWF-(1,14801)
        148          3         48 -4.13499134E-02                    1_GWF-(1,26648)  2.13628213E-03                    1_GWF-(1,14801)
        149          3         49 -5.15442765E-02                    1_GWF-(1,26649) -1.87553682E-03                    1_GWF-(1,14801)
        150          3         50 -4.87225212E-02                    1_GWF-(1,26466) -1.25771309E-03                    1_GWF-(1,14800)
        151          4          1 -2.70179033E-02                    1_GWF-(1,11439) -9.03838407E-04                    1_GWF-(1,14801)
        152          4          2 -2.50597121E-02                    1_GWF-(1,11436)  9.06030855E-04                    1_GWF-(1,14801)
        153          4          3 -2.03548005E-02                    1_GWF-(1,26217) -9.33646267E-04                    1_GWF-(1,14801)
        154          4          4 -2.01588166E-02                    1_GWF-(1,26218) -8.55103984E-04                    1_GWF-(1,14800)
        155          4          5  1.79187308E-02                    1_GWF-(1,26218) -6.71985243E-04                    1_GWF-(1,14801)
        156          4          6 -1.87550996E-02                    1_GWF-(1,26218) -4.34160403E-04                    1_GWF-(1,14800)
        157          4          7 -1.58711041E-02                    1_GWF-(1,26217)  1.78560719E-04                    1_GWF-(1,14800)
        158          4          8 -1.38176279E-02                    1_GWF-(1,26665)  9.50275960E-05                    1_GWF-(1,10966)
        159          4          9  1.70178628E-02                    1_GWF-(1,26665)  2.33873115E-04                    1_GWF-(1,14801)
        160          4         10 -1.62078101E-02                    1_GWF-(1,26665)  2.47058112E-04                    1_GWF-(1,14800)
        161          4         11  1.58553527E-02                    1_GWF-(1,26665)  1.47327684E-04                    1_GWF-(1,14801)
        162          4         12 -7.82040813E-03                    1_GWF-(1,26649)  1.01002681E-04                    1_GWF-(1,14801)
        163          4         13  7.44590779E-03                    1_GWF-(1,26649)  1.94859530E-04                    1_GWF-(1,14800)
        164          4         14  9.09530210E-03                    1_GWF-(1,26622)  1.94290368E-04                    1_GWF-(1,14801)
        165          4         15  8.11206585E-03                    1_GWF-(1,26623)  1.15865503E-04                    1_GWF-(1,14800)
        166          4         16 -6.89417268E-03                    1_GWF-(1,26623)  5.99987958E-05                    1_GWF-(1,14800)
        167          4         17 -7.00845457E-03                    1_GWF-(1,26622)  1.75063171E-04                    1_GWF-(1,14801)
        168          4         18 -4.59988061E-03                    1_GWF-(1,26486)  2.38896991E-04                    1_GWF-(1,14800)
        169          4         19  6.19907320E-03                    1_GWF-(1,26588)  2.37540111E-04                    1_GWF-(1,14801)
        170          4         20 -7.72023735E-03                    1_GWF-(1,26588)  1.18213495E-04                    1_GWF-(1,14800)
        171          4         21  7.29094023E-03                    1_GWF-(1,26420)  8.01479512E-05                    1_GWF-(1,14800)
        172          4         22  5.17494880E-03                    1_GWF-(1,26487)  2.12120822E-04                    1_GWF-(1,14801)
        173          4         23 -4.17422710E-03                    1_GWF-(1,26649) -3.16431179E-04                    1_GWF-(1,14801)
        174          4         24 -4.50847619E-03                    1_GWF-(1,26622) -3.74842936E-04                    1_GWF-(1,14800)
        175          4         25 -6.87333769E-03                    1_GWF-(1,26623) -3.22396979E-04                    1_GWF-(1,14801)
        176          4         26 -6.78577340E-03                    1_GWF-(1,26589) -1.38197286E-04                    1_GWF-(1,14800)
        177          4         27 -6.99326089E-03                    1_GWF-(1,26588)  1.13346584E-04                    1_GWF-(1,14801)
        178          4         28  6.75561436E-03                    1_GWF-(1,26588) -2.56461425E-04                    1_GWF-(1,14801)
        179          4         29 -4.19170561E-03                    1_GWF-(1,26544) -2.54189033E-04                    1_GWF-(1,14800)
        180          4         30  2.69322297E-03                    1_GWF-(1,26544)  2.11609655E-04                    1_GWF-(1,14800)
        181          4         31  4.06112223E-03                    1_GWF-(1,26486)  1.47931392E-04                    1_GWF-(1,14801)
        182          4         32 -3.52720770E-03                    1_GWF-(1,26422)  7.44149046E-05                    1_GWF-(1,14800)
        183          4         33  4.50171472E-03                    1_GWF-(1,26422)  3.60077857E-05                    1_GWF-(1,10966)
        184          4         34 -4.44502172E-03                    1_GWF-(1,26422)  8.92862199E-05                    1_GWF-(1,14801)
        185          4         35 -4.77621859E-03                    1_GWF-(1,26350)  1.40241963E-04                    1_GWF-(1,14800)
        186          4         36 -4.77617480E-03                    1_GWF-(1,26422)  1.62032998E-04                    1_GWF-(1,14801)
        187          4         37 -3.28532784E-03                    1_GWF-(1,26350)  1.55434204E-04                    1_GWF-(1,14800)
        188          4         38 -2.12617314E-03                    1_GWF-(1,26422)  1.51970120E-04                    1_GWF-(1,14801)
        189          4         39 -1.88998591E-03                    1_GWF-(1,22908)  1.28778108E-04                    1_GWF-(1,14800)
        190          4         40 -1.61422591E-03                    1_GWF-(1,22911)  1.19003539E-04                    1_GWF-(1,14801)
        191          4         41  1.66050908E-03                    1_GWF-(1,26394)  1.00886534E-04                    1_GWF-(1,14800)
        192          4         42 -1.51852015E-03                    1_GWF-(1,26663)  8.74488530E-05                    1_GWF-(1,14801)
        193          4         43 -1.61144441E-03                    1_GWF-(1,26674)  7.79133183E-05                    1_GWF-(1,14800)
        194          4         44  2.02004665E-03                    1_GWF-(1,26350)  6.35009627E-05                    1_GWF-(1,14801)
        195          4         45  1.64579987E-03                    1_GWF-(1,26218)  4.83920113E-05                    1_GWF-(1,10965)
        196          4         46  1.58044807E-03                    1_GWF-(1,26487)  7.32380609E-05                    1_GWF-(1,10966)
        197          4         47  9.90013299E-04                    1_GWF-(1,26673) -5.45952272E-05                    1_GWF-(1,10966)
        198          4         48  1.31283573E-03                    1_GWF-(1,26672)  6.82548063E-05                    1_GWF-(1,10966)
        199          4         49 -1.33490041E-03                    1_GWF-(1,26672)  4.67903608E-05                    1_GWF-(1,10961)
        200          4         50 -1.29353666E-03                    1_GWF-(1,26663)  5.32398420E-05                    1_GWF-(1,10966)
        201          5          1 -9.13282790E-03                    1_GWF-(1,11936)  2.02889719E-05                    1_GWF-(1,10965)
        202          5          2 -2.92830504E-03                    1_GWF-(1,11935)  3.33835592E-05                    1_GWF-(1,10966)
        203          5          3 -1.45498445E-03                    1_GWF-(1,11925)  2.58173561E-05                    1_GWF-(1,10965)
        204          5          4 -1.06117837E-03                    1_GWF-(1,11927)  4.15457078E-05                    1_GWF-(1,10966)
        205          5          5  1.03476413E-03                    1_GWF-(1,12190)  3.33286716E-05                    1_GWF-(1,10965)
        206          5          6  9.49716288E-04                    1_GWF-(1,11935)  4.27609056E-05                    1_GWF-(1,10966)
        207          5          7 -1.18134457E-03                    1_GWF-(1,26672)  2.65562115E-05                    1_GWF-(1,10961)
        208          5          8  1.20227051E-03                    1_GWF-(1,11999)  3.16340076E-05                    1_GWF-(1,10966)
        209          5          9  1.18680706E-03                    1_GWF-(1,11884)  1.40040419E-05                    1_GWF-(1,10965)
        210          5         10 -1.16720894E-03                    1_GWF-(1,26649)  7.80315610E-06                    1_GWF-(1,11924)
        211          5         11  1.55405914E-03                    1_GWF-(1,26649)  1.89388383E-05                    1_GWF-(1,10966)
        212          5         12  1.94858228E-03                    1_GWF-(1,26622)  1.37459983E-05                    1_GWF-(1,10961)
        213          5         13  1.75469712E-03                    1_GWF-(1,26649)  6.93099717E-06                    1_GWF-(1,11924)
        214          5         14  1.36550092E-03                    1_GWF-(1,26622)  6.25259344E-06                    1_GWF-(1,11923)
        215          5         15  9.97675897E-04                    1_GWF-(1,26623)  1.19760460E-05                    1_GWF-(1,10965)
        216          5         16 -8.03587920E-04                    1_GWF-(1,12088)  2.29426400E-05                    1_GWF-(1,10966)
        217          5         17 -7.85548847E-04                    1_GWF-(1,12079) -2.72125923E-05                    1_GWF-(1,10966)
        218          5         18  1.29171213E-03                    1_GWF-(1,26486) -1.96348362E-05                    1_GWF-(1,10961)
        219          5         19 -1.30673498E-03                    1_GWF-(1,26486) -1.01119388E-05                    1_GWF-(1,10966)
        220          5         20 -1.26273334E-03                    1_GWF-(1,26487) -1.16534350E-05                    1_GWF-(1,10966)
        221          5         21 -9.54438770E-04                    1_GWF-(1,26486) -2.14652063E-05                    1_GWF-(1,10965)
        222          5         22 -6.69082916E-04                    1_GWF-(1,26422) -3.63204620E-05                    1_GWF-(1,10966)
        223          5         23 -8.88798563E-04                    1_GWF-(1,26350)  3.66988325E-05                    1_GWF-(1,10966)
        224          5         24 -1.03592436E-03                    1_GWF-(1,26422) -3.39032700E-05                    1_GWF-(1,10966)
        225          5         25 -9.41546131E-04                    1_GWF-(1,26350)  2.40168534E-05                    1_GWF-(1,10966)
        226          5         26  1.11024136E-03                    1_GWF-(1,26350) -2.06157236E-05                    1_GWF-(1,10966)
        227          5         27  1.18076920E-03                    1_GWF-(1,26422) -5.95583135E-06                    1_GWF-(1,10966)
        228          5         28  8.72134770E-04                    1_GWF-(1,26350)  1.68297851E-05                    1_GWF-(1,10966)
        229          5         29  6.56795829E-04                    1_GWF-(1,26486) -2.73718331E-05                    1_GWF-(1,10966)
        230          5         30 -7.19740670E-04                    1_GWF-(1,26588)  2.01539882E-05                    1_GWF-(1,10966)
        231          5         31  7.71631098E-04                    1_GWF-(1,26588) -1.40931112E-05                    1_GWF-(1,10966)
        232          5         32 -6.60360951E-04                    1_GWF-(1,26588) -4.89670527E-06                    1_GWF-(1,10966)
        233          5         33 -5.78928192E-04                    1_GWF-(1,26422)  1.39456651E-05                    1_GWF-(1,10966)
        234          5         34 -4.74156773E-04                    1_GWF-(1,26350) -2.10902713E-05                    1_GWF-(1,10966)
        235          5         35 -3.21461883E-04                    1_GWF-(1,26421)  2.19920612E-05                    1_GWF-(1,10966)
        236          5         36 -2.17372679E-04                    1_GWF-(1,26420) -2.01939481E-05                    1_GWF-(1,10966)
        237          5         37 -1.99559945E-04                     1_GWF-(1,2333)  2.02018805E-05                    1_GWF-(1,10966)
        238          5         38 -1.97583300E-04                      1_GWF-(1,519) -1.87647626E-05                    1_GWF-(1,10966)
        239          5         39 -1.91970525E-04                      1_GWF-(1,507)  1.89671047E-05                    1_GWF-(1,10966)
        240          5         40  2.21823775E-04                    1_GWF-(1,26218) -1.80489462E-05                    1_GWF-(1,10966)
        241          5         41 -2.53333843E-04                    1_GWF-(1,26218)  1.67691146E-05                    1_GWF-(1,10966)
        242          5         42 -3.91489272E-04                    1_GWF-(1,26217) -1.30078994E-05                    1_GWF-(1,10966)
        243          5         43 -4.10730650E-04                    1_GWF-(1,26665)  7.75052557E-06                    1_GWF-(1,10966)
        244          5         44  4.21048214E-04                    1_GWF-(1,26665)  2.93040865E-06                    1_GWF-(1,10958)
        245          5         45  5.32412168E-04                    1_GWF-(1,26666)  3.90590632E-06                    1_GWF-(1,10961)
        246          5         46  6.70047159E-04                    1_GWF-(1,26665)  8.03281120E-06                    1_GWF-(1,10966)
        247          5         47  4.97827745E-04                    1_GWF-(1,26666)  5.92398172E-06                    1_GWF-(1,10961)
        248          5         48  3.47052652E-04                    1_GWF-(1,26665)  6.31589373E-06                    1_GWF-(1,10966)
        249          5         49  3.27148289E-04                    1_GWF-(1,26218)  3.14551112E-06                    1_GWF-(1,10960)
        250          5         50 -3.04660035E-04                    1_GWF-(1,26218)  2.61940071E-06                    1_GWF-(1,10959)
        251          6          1 -3.11167867E-04                    1_GWF-(1,26217)  2.52493209E-06                    1_GWF-(1,10960)
        252          6          2 -3.25923057E-04                    1_GWF-(1,26218) -1.49871866E-06                    1_GWF-(1,15940)
        253          6          3 -2.75015716E-04                    1_GWF-(1,26217)  1.46540470E-06                    1_GWF-(1,10967)
        254          6          4 -2.11246440E-04                    1_GWF-(1,26543)  1.37844022E-06                    1_GWF-(1,10960)
        255          6          5 -2.80880454E-04                    1_GWF-(1,26588)  1.63889351E-06                    1_GWF-(1,10962)
        256          6          6 -2.75196409E-04                    1_GWF-(1,26543)  9.22466427E-07                    1_GWF-(1,15940)
        257          6          7 -2.07911467E-04                    1_GWF-(1,26487)  1.01386538E-06                    1_GWF-(1,11132)
        258          6          8 -1.44187610E-04                    1_GWF-(1,26420) -1.03324549E-06                    1_GWF-(1,10958)
        259          6          9  1.59284938E-04                    1_GWF-(1,26486) -8.83186158E-07                    1_GWF-(1,11132)
        260          6         10  1.62680831E-04                    1_GWF-(1,26487) -9.29730434E-07                    1_GWF-(1,10961)
        261          6         11  1.22137792E-04                    1_GWF-(1,26622)  6.75668244E-07                    1_GWF-(1,11040)
        262          6         12  9.46897794E-05                    1_GWF-(1,26217)  8.95951307E-07                    1_GWF-(1,14800)
        263          6         13  1.02030005E-04                    1_GWF-(1,26218)  9.80489958E-07                    1_GWF-(1,11138)
        264          6         14  6.72414387E-05                    1_GWF-(1,26217)  8.72115133E-07                    1_GWF-(1,10961)
        265          6         15  8.75785948E-05                    1_GWF-(1,26622) -6.30831869E-07                    1_GWF-(1,15940)
        266          6         16  1.05919822E-04                    1_GWF-(1,26649)  5.48258507E-07                    1_GWF-(1,14801)
        267          6         17 -1.04656863E-04                    1_GWF-(1,26649)  5.34494492E-07                    1_GWF-(1,10967)
        268          6         18 -7.96599223E-05                    1_GWF-(1,26622) -5.84023972E-07                    1_GWF-(1,10967)
        269          6         19  4.69439126E-05                    1_GWF-(1,26622)  9.24884165E-07                    1_GWF-(1,15940)
        270          6         20  5.46078096E-05                    1_GWF-(1,25766) -1.03926833E-06                    1_GWF-(1,15940)
        271          6         21  5.16978200E-05                    1_GWF-(1,25719)  1.27695750E-06                    1_GWF-(1,15940)
        272          6         22  4.38863058E-05                    1_GWF-(1,25716) -1.22517109E-06                    1_GWF-(1,15940)
        273          6         23 -6.01484525E-05                    1_GWF-(1,26486)  1.22941857E-06                    1_GWF-(1,15940)
        274          6         24 -5.94455558E-05                    1_GWF-(1,26544) -1.08446374E-06                    1_GWF-(1,15940)
        275          6         25 -7.03954325E-05                    1_GWF-(1,26422) -6.90638208E-07                    1_GWF-(1,11132)
        276          6         26 -8.43336029E-05                    1_GWF-(1,26350)  6.80245687E-07                    1_GWF-(1,11132)
        277          6         27 -8.42076699E-05                    1_GWF-(1,26422)  5.40134580E-07                    1_GWF-(1,10961)
        278          6         28  8.58858277E-05                    1_GWF-(1,26422) -4.90194697E-07                    1_GWF-(1,11131)
        279          6         29  5.98095939E-05                    1_GWF-(1,26350) -5.29450804E-07                    1_GWF-(1,15940)
        280          6         30 -5.54119445E-05                    1_GWF-(1,26588)  3.53483810E-07                    1_GWF-(1,15940)
        281          6         31  6.06568252E-05                    1_GWF-(1,26588)  2.41379897E-07                    1_GWF-(1,11130)
        282          6         32 -5.90434387E-05                    1_GWF-(1,26588) -3.89693120E-07                    1_GWF-(1,10961)
        283          6         33 -4.26217134E-05                    1_GWF-(1,26589)  4.79766437E-07                    1_GWF-(1,15940)
        284          6         34 -4.60034626E-05                    1_GWF-(1,26588) -5.04414826E-07                    1_GWF-(1,15940)
        285          6         35 -3.51810503E-05                    1_GWF-(1,26350)  4.86104726E-07                    1_GWF-(1,15940)
        286          6         36 -3.48099763E-05                    1_GWF-(1,26422) -4.26456643E-07                    1_GWF-(1,15940)
        287          6         37 -2.90108892E-05                    1_GWF-(1,26350)  3.56596664E-07                    1_GWF-(1,15940)
        288          6         38 -2.42453248E-05                    1_GWF-(1,26422)  3.69307829E-07                    1_GWF-(1,14800)
        289          6         39  2.19928759E-05                    1_GWF-(1,26649)  5.57197683E-07                    1_GWF-(1,14801)
        290          6         40  2.71818194E-05                    1_GWF-(1,26648)  4.06701595E-07                    1_GWF-(1,14800)
        291          6         41  3.72394300E-05                    1_GWF-(1,26649)  2.72074497E-07                    1_GWF-(1,10966)
        292          6         42  3.95211081E-05                    1_GWF-(1,26486)  1.95192217E-07                    1_GWF-(1,10963)
        293          6         43  3.50329150E-05                    1_GWF-(1,26487)  3.15383118E-07                    1_GWF-(1,14800)
        294          6         44  2.76185716E-05                    1_GWF-(1,26486)  3.71379010E-07                    1_GWF-(1,10966)
        295          6         45  2.02169457E-05                    1_GWF-(1,26544)  2.97466573E-07                    1_GWF-(1,14800)
        296          6         46  2.06393248E-05                    1_GWF-(1,26486)  2.81271801E-07                    1_GWF-(1,14801)
        297          6         47  1.67421353E-05                    1_GWF-(1,26648) -2.01615451E-07                    1_GWF-(1,14801)
        298          6         48  1.46063536E-05                    1_GWF-(1,26649)  1.83448248E-07                    1_GWF-(1,10966)
        299          6         49  1.68034288E-05                    1_GWF-(1,11943)  1.73697462E-07                    1_GWF-(1,10957)
        300          6         50  2.26647304E-05                    1_GWF-(1,11935)  2.67301044E-07                    1_GWF-(1,11935)
        301          7          1 -2.50031556E-05                    1_GWF-(1,11935)  1.55644129E-07                    1_GWF-(1,10966)
        302          7          2  1.82237320E-05                    1_GWF-(1,26649)  1.39008163E-07                    1_GWF-(1,10960)
        303          7          3 -2.16993657E-05                    1_GWF-(1,26486)  1.27519882E-07                    1_GWF-(1,11154)
        304          7          4 -2.34415167E-05                    1_GWF-(1,26487)  1.19393398E-07                    1_GWF-(1,10966)
        305          7          5 -2.02828464E-05                    1_GWF-(1,26486)  1.26578699E-07                    1_GWF-(1,10960)
        306          7          6 -1.70587222E-05                    1_GWF-(1,26487)  1.77582305E-07                    1_GWF-(1,10966)
        307          7          7 -1.93106225E-05                    1_GWF-(1,26674)  1.18151916E-07                    1_GWF-(1,11150)
        308          7          8  2.07549723E-05                    1_GWF-(1,26674) -1.20028353E-07                    1_GWF-(1,11936)
        309          7          9  2.15931600E-05                    1_GWF-(1,26663) -1.41256829E-07                    1_GWF-(1,11150)
        310          7         10  1.99485923E-05                    1_GWF-(1,26665)  1.28673665E-07                    1_GWF-(1,11150)
        311          7         11 -2.19760372E-05                    1_GWF-(1,26665)  1.04091646E-07                    1_GWF-(1,11065)
        312          7         12  1.62905568E-05                    1_GWF-(1,26622)  1.02494239E-07                    1_GWF-(1,11152)
        313          7         13  1.86241331E-05                    1_GWF-(1,26623) -1.25885306E-07                    1_GWF-(1,11065)
        314          7         14  1.55086956E-05                    1_GWF-(1,26622) -9.91998031E-08                    1_GWF-(1,10965)
        315          7         15  1.60443724E-05                    1_GWF-(1,26487) -8.79484381E-08                    1_GWF-(1,14799)
        316          7         16  1.58699688E-05                    1_GWF-(1,26543)  1.06012506E-07                    1_GWF-(1,10966)
        317          7         17  1.58332496E-05                    1_GWF-(1,26665)  8.13776042E-08                    1_GWF-(1,11065)
        318          7         18  1.31284420E-05                    1_GWF-(1,26543) -1.34320542E-07                    1_GWF-(1,10966)
        319          7         19  9.11655639E-06                    1_GWF-(1,26588) -8.21629275E-08                    1_GWF-(1,11065)
        320          7         20 -1.21784418E-05                    1_GWF-(1,26588)  1.05930006E-07                    1_GWF-(1,10961)
        321          7         21  1.30416548E-05                    1_GWF-(1,26588)  8.46933343E-08                    1_GWF-(1,15940)
        322          7         22 -1.71699743E-05                    1_GWF-(1,26588) -1.08184444E-07                    1_GWF-(1,10961)
        323          7         23 -1.45641982E-05                    1_GWF-(1,26543) -7.05040843E-08                    1_GWF-(1,11146)
        324          7         24 -1.61117339E-05                    1_GWF-(1,26588)  8.64480422E-08                    1_GWF-(1,15940)
        325          7         25 -8.65716054E-06                    1_GWF-(1,26543) -1.33709649E-07                    1_GWF-(1,15940)
        326          7         26  6.46070076E-06                    1_GWF-(1,26422)  1.58835663E-07                    1_GWF-(1,15940)
        327          7         27  7.19401656E-06                    1_GWF-(1,26350) -1.64681927E-07                    1_GWF-(1,15940)
        328          7         28  8.03653385E-06                    1_GWF-(1,26486)  1.52238031E-07                    1_GWF-(1,15940)
        329          7         29  8.37623793E-06                    1_GWF-(1,26350) -1.27957236E-07                    1_GWF-(1,15940)
        330          7         30  9.69817613E-06                    1_GWF-(1,26422)  8.87238426E-08                    1_GWF-(1,15940)
        331          7         31  9.73658179E-06                    1_GWF-(1,26350)  7.62307110E-08                    1_GWF-(1,14801)
        332          7         32  8.91594104E-06                    1_GWF-(1,26422) -6.33459918E-08                    1_GWF-(1,10967)
        333          7         33 -7.39529996E-06                    1_GWF-(1,26486) -4.30737106E-08                    1_GWF-(1,11150)
        334          7         34  8.55001315E-06                    1_GWF-(1,26486) -6.06285959E-08                    1_GWF-(1,15940)
        335          7         35  7.35511559E-06                    1_GWF-(1,26622)  5.26796407E-08                    1_GWF-(1,14800)
        336          7         36 -7.22437015E-06                    1_GWF-(1,26622)  3.95901617E-08                    1_GWF-(1,14799)
        337          7         37  6.68645473E-06                    1_GWF-(1,26422) -4.36286808E-08                    1_GWF-(1,15940)
        338          7         38 -5.33193408E-06                    1_GWF-(1,26422)  6.72227060E-08                    1_GWF-(1,15940)
        339          7         39 -4.74541441E-06                    1_GWF-(1,26350) -7.51317786E-08                    1_GWF-(1,15940)
        340          7         40 -4.17924964E-06                    1_GWF-(1,26421)  6.92609380E-08                    1_GWF-(1,15940)
        341          7         41 -4.84381435E-06                    1_GWF-(1,26544) -6.35019384E-08                    1_GWF-(1,15940)
        342          7         42 -7.06001201E-06                    1_GWF-(1,26486)  4.77593624E-08                    1_GWF-(1,14800)
        343          7         43 -5.57297272E-06                    1_GWF-(1,26487)  2.63875923E-08                    1_GWF-(1,11040)
        344          7         44  6.87545194E-06                    1_GWF-(1,26487)  3.64535114E-08                    1_GWF-(1,11132)
        345          7         45  6.66827067E-06                    1_GWF-(1,26486)  4.44671139E-08                    1_GWF-(1,15940)
        346          7         46  5.21070359E-06                    1_GWF-(1,26588)  4.67255804E-08                    1_GWF-(1,10963)
        347          7         47  3.73776976E-06                    1_GWF-(1,26420)  4.67870808E-08                    1_GWF-(1,10958)
        348          7         48  4.56816089E-06                    1_GWF-(1,26218) -4.06177470E-08                    1_GWF-(1,14800)
        349          7         49  4.58003389E-06                    1_GWF-(1,26217)  3.71923150E-08                    1_GWF-(1,10963)
        350          7         50  3.62343962E-06                    1_GWF-(1,26218)  3.30130192E-08                    1_GWF-(1,10967)
        351          8          1 -4.04124715E-06                    1_GWF-(1,26218)  4.19588321E-08                    1_GWF-(1,10963)
        352          8          2 -4.93388983E-06                    1_GWF-(1,26217) -2.92333167E-08                    1_GWF-(1,14800)
        353          8          3 -3.77731985E-06                    1_GWF-(1,26218)  2.08583769E-08                    1_GWF-(1,11212)
        354          8          4 -3.32478583E-06                    1_GWF-(1,26622)  2.47913092E-08                    1_GWF-(1,10963)
        355          8          5  2.96380005E-06                    1_GWF-(1,26665)  2.25272625E-08                    1_GWF-(1,10964)
        356          8          6 -2.92755214E-06                    1_GWF-(1,26622) -2.02002565E-08                    1_GWF-(1,14801)
        357          8          7  2.93192661E-06                    1_GWF-(1,26622)  1.73342877E-08                    1_GWF-(1,14801)
        358          8          8  2.35652084E-06                    1_GWF-(1,26649)  1.70462591E-08                    1_GWF-(1,11062)
        359          8          9 -2.18677162E-06                    1_GWF-(1,26649)  1.29183262E-08                    1_GWF-(1,14800)
        360          8         10  2.20534381E-06                    1_GWF-(1,26665)  1.59606265E-08                    1_GWF-(1,14801)
        361          8         11 -2.07840218E-06                    1_GWF-(1,26665)  1.42600670E-08                    1_GWF-(1,14800)
        362          8         12  1.50990097E-06                    1_GWF-(1,26218) -1.53227909E-08                    1_GWF-(1,11063)
        363          8         13  1.31057823E-06                    1_GWF-(1,26217)  1.41491438E-08                    1_GWF-(1,14801)
        364          8         14  8.18958735E-07                    1_GWF-(1,26487)  1.56164105E-08                    1_GWF-(1,14800)
        365          9          1 -1.15347305E-06                    1_GWF-(1,26487)  1.58624941E-08                    1_GWF-(1,14801)
        366          9          2  1.30234882E-06                    1_GWF-(1,26487)  1.40439548E-08                    1_GWF-(1,14800)
        367          9          3 -1.56981891E-06                    1_GWF-(1,26487)  1.05077933E-08                    1_GWF-(1,14800)
        368          9          4 -1.40324670E-06                    1_GWF-(1,26486)  1.49393774E-08                    1_GWF-(1,14799)
        369          9          5 -9.73762898E-07                    1_GWF-(1,26487) -1.66761469E-08                    1_GWF-(1,10966)
        370         10          1 -6.89892602E-07                    1_GWF-(1,26486)  1.40900637E-08                    1_GWF-(1,14801)
 --------------------------------------------------------------------------------------------------------------------------------------


 UBDSV1 SAVING     FLOW-JA-FACE ON UNIT   1020 AT TIME STEP      1, STRESS PERIOD      1
 UBDSV06 SAVING       DATA-SPDIS IN MODEL ML               PACKAGE NPF             CONNECTED TO MODEL ML               PACKAGE NPF              ON UNIT   1020 AT TIME STEP      1, STRESS PERIOD      1
 UBDSV06 SAVING              WEL IN MODEL ML               PACKAGE ML              CONNECTED TO MODEL ML               PACKAGE WEL_0            ON UNIT   1020 AT TIME STEP      1, STRESS PERIOD      1
 UBDSV06 SAVING              DRN IN MODEL ML               PACKAGE ML              CONNECTED TO MODEL ML               PACKAGE DRN_0            ON UNIT   1020 AT TIME STEP      1, STRESS PERIOD      1
 UBDSV06 SAVING              RIV IN MODEL ML               PACKAGE ML              CONNECTED TO MODEL ML               PACKAGE RIV_0            ON UNIT   1020 AT TIME STEP      1, STRESS PERIOD      1
 UBDSV06 SAVING              GHB IN MODEL ML               PACKAGE ML              CONNECTED TO MODEL ML               PACKAGE GHB_0            ON UNIT   1020 AT TIME STEP      1, STRESS PERIOD      1
 UBDSV06 SAVING              RCH IN MODEL ML               PACKAGE ML              CONNECTED TO MODEL ML               PACKAGE RCHA_0           ON UNIT   1020 AT TIME STEP      1, STRESS PERIOD      1

 HEAD WILL BE SAVED ON UNIT 1021 AT END OF TIME STEP    1, STRESS PERIOD    1


  VOLUME BUDGET FOR ENTIRE MODEL AT END OF TIME STEP    1, STRESS PERIOD   1
  ---------------------------------------------------------------------------------------------------

     CUMULATIVE VOLUME      L**3       RATES FOR THIS TIME STEP      L**3/T          PACKAGE NAME    
     ------------------                 ------------------------                     ----------------

           IN:                                      IN:
           ---                                      ---
                 WEL =           0.0000                   WEL =           0.0000     WEL_0           
                 DRN =           0.0000                   DRN =           0.0000     DRN_0           
                 RIV =           7.1905                   RIV =           0.7989     RIV_0           
                 GHB =          10.2390                   GHB =           1.1377     GHB_0           
                 RCH =           7.4372                   RCH =           0.8264     RCHA_0          

            TOTAL IN =          24.8666              TOTAL IN =           2.7630

          OUT:                                     OUT:
          ----                                     ----
                 WEL =           1.4412                   WEL =           0.1601     WEL_0           
                 DRN =           1.5956                   DRN =           0.1773     DRN_0           
                 RIV =          20.7402                   RIV =           2.3045     RIV_0           
                 GHB =           1.0896                   GHB =           0.1211     GHB_0           
                 RCH =           0.0000                   RCH =           0.0000     RCHA_0          

           TOTAL OUT =          24.8666             TOTAL OUT =           2.7630

            IN - OUT =      -7.1581E-06              IN - OUT =      -7.9535E-07

 PERCENT DISCREPANCY =          -0.00     PERCENT DISCREPANCY =          -0.00




         TIME SUMMARY AT END OF TIME STEP    1 IN STRESS PERIOD    1
                    SECONDS     MINUTES      HOURS       DAYS        YEARS
                    -----------------------------------------------------------
   TIME STEP LENGTH  9.0000     0.15000     2.50000E-03 1.04167E-04 2.85193E-07
 STRESS PERIOD TIME  9.0000     0.15000     2.50000E-03 1.04167E-04 2.85193E-07
         TOTAL TIME  9.0000     0.15000     2.50000E-03 1.04167E-04 2.85193E-07


end timestep

