                                   MODFLOW 6
                U.S. GEOLOGICAL SURVEY MODULAR HYDROLOGIC MODEL
                          GROUNDWATER FLOW MODEL (GWF)
                            VERSION 6.2.2 07/30/2021

   MODFLOW 6 compiled Jul 31 2021 14:22:53 with IFORT compiler (ver. 19.10.3)

This software has been approved for release by the U.S. Geological 
Survey (USGS). Although the software has been subjected to rigorous 
review, the USGS reserves the right to update the software as needed 
pursuant to further analysis and review. No warranty, expressed or 
implied, is made by the USGS or the U.S. Government as to the 
functionality of the software and related material nor shall the 
fact of release constitute any such warranty. Furthermore, the 
software is released on condition that neither the USGS nor the U.S. 
Government shall be held liable for any damages resulting from its 
authorized or unauthorized use. Also refer to the USGS Water 
Resources Software User Rights Notice for complete use, copyright, 
and distribution information.


System command used to initiate simulation:
mf6

MODFLOW was compiled using uniform precision.

Real Variables
  KIND: 8
  TINY (smallest non-zero value):    2.225074-308
  HUGE (largest value):    1.797693+308
  PRECISION: 15
  BIT SIZE: 64

Integer Variables
  KIND: 4
  HUGE (largest value): 2147483647
  BIT SIZE: 32

Long Integer Variables
  KIND: 8
  HUGE (largest value): 9223372036854775807
  BIT SIZE: 64

Logical Variables
  KIND: 4
  BIT SIZE: 32
 

 OPENED ./ml.disv
 FILE TYPE:DISV6                  UNIT 1005   STATUS:OLD                 
 FORMAT:FORMATTED              ACCESS:SEQUENTIAL          
 ACTION:READ                


 OPENED ./ml.ic
 FILE TYPE:IC6                    UNIT 1006   STATUS:OLD                 
 FORMAT:FORMATTED              ACCESS:SEQUENTIAL          
 ACTION:READ                


 OPENED ./ml.npf
 FILE TYPE:NPF6                   UNIT 1007   STATUS:OLD                 
 FORMAT:FORMATTED              ACCESS:SEQUENTIAL          
 ACTION:READ                


 OPENED ./ml.ghb
 FILE TYPE:GHB6                   UNIT 1008   STATUS:OLD                 
 FORMAT:FORMATTED              ACCESS:SEQUENTIAL          
 ACTION:READ                


 OPENED ./ml.rcha
 FILE TYPE:RCH6                   UNIT 1009   STATUS:OLD                 
 FORMAT:FORMATTED              ACCESS:SEQUENTIAL          
 ACTION:READ                


 OPENED ./ml.obs
 FILE TYPE:OBS6                   UNIT 1010   STATUS:OLD                 
 FORMAT:FORMATTED              ACCESS:SEQUENTIAL          
 ACTION:READ                


 OPENED ./ml.oc
 FILE TYPE:OC6                    UNIT 1011   STATUS:OLD                 
 FORMAT:FORMATTED              ACCESS:SEQUENTIAL          
 ACTION:READ                


 OPENED ml.wel
 FILE TYPE:WEL6                   UNIT 1012   STATUS:OLD                 
 FORMAT:FORMATTED              ACCESS:SEQUENTIAL          
 ACTION:READ                


 OPENED ml.drn
 FILE TYPE:DRN6                   UNIT 1013   STATUS:OLD                 
 FORMAT:FORMATTED              ACCESS:SEQUENTIAL          
 ACTION:READ                


 OPENED ml.riv
 FILE TYPE:RIV6                   UNIT 1014   STATUS:OLD                 
 FORMAT:FORMATTED              ACCESS:SEQUENTIAL          
 ACTION:READ                


 DISV -- VERTEX GRID DISCRETIZATION PACKAGE, VERSION 1 : 12/23/2015 - INPUT READ FROM UNIT 1005


 # File generated by Flopy version 3.3.5 on 04/25/2022 at 00:16:08.

 PROCESSING DISCRETIZATION OPTIONS
    MODEL LENGTH UNIT IS METERS
    XORIGIN SPECIFIED AS     405575.681000000    
    YORIGIN SPECIFIED AS     6423306.54000000    
 END OF DISCRETIZATION OPTIONS

 PROCESSING DISCRETIZATION DIMENSIONS
   NLAY = 1
   NCPL = 26674
   NVERT = 27090
 END OF DISCRETIZATION DIMENSIONS

 PROCESSING GRIDDATA
 END PROCESSING GRIDDATA

 PROCESSING VERTICES
   SUCCESSFULLY READ 27090 (X,Y) COORDINATES
   MINIMUM X COORDINATE =     405575.681000000    
   MAXIMUM X COORDINATE =     413975.681000000    
   MINIMUM Y COORDINATE =     6423306.54000000    
   MAXIMUM Y COORDINATE =     6432506.54000000    
 END PROCESSING VERTICES

 PROCESSING CELL2D
   SUCCESSFULLY READ 26674 CELL2D INFORMATION ENTRIES
   MINIMUM X CELL CENTER =     405675.681000000    
   MAXIMUM X CELL CENTER =     413875.681000000    
   MINIMUM Y CELL CENTER =     6423406.54000000    
   MAXIMUM Y CELL CENTER =     6432406.54000000    
   MAXIMUM NUMBER OF CELL2D VERTICES IS 6 FOR CELL 208
 END PROCESSING VERTICES

 NPF -- NODE PROPERTY FLOW PACKAGE, VERSION 1, 3/30/2015 INPUT READ FROM UNIT 1007


 # File generated by Flopy version 3.3.5 on 04/25/2022 at 00:16:11.
 PROCESSING NPF OPTIONS
    CELL-BY-CELL FLOW INFORMATION WILL BE SAVED TO BINARY FILE WHENEVER ICBCFL IS NOT ZERO.
    SPECIFIC DISCHARGE WILL BE CALCULATED AT CELL CENTERS AND WRITTEN TO DATA-SPDIS IN BUDGET FILE WHEN REQUESTED.
 END OF NPF OPTIONS

 WEL   -- WEL PACKAGE, VERSION 8, 2/22/2014 INPUT READ FROM UNIT 1012
 # File generated by Flopy version 3.3.5 on 04/25/2022 at 00:16:11.

 PROCESSING WEL OPTIONS
    WEL BOUNDARIES HAVE NAMES IN LAST COLUMN.
    FLOWS WILL BE SAVED TO BUDGET FILE SPECIFIED IN OUTPUT CONTROL
 END OF WEL OPTIONS

 PROCESSING WEL DIMENSIONS
    MAXBOUND =       9
 END OF WEL DIMENSIONS

 DRN   -- DRN PACKAGE, VERSION 8, 2/22/2014 INPUT READ FROM UNIT 1013
 # File generated by Flopy version 3.3.5 on 04/25/2022 at 00:16:11.

 PROCESSING DRN OPTIONS
    DRN BOUNDARIES HAVE NAMES IN LAST COLUMN.
    FLOWS WILL BE SAVED TO BUDGET FILE SPECIFIED IN OUTPUT CONTROL

 OPENED ml.drn.obs
 FILE TYPE:OBS   UNIT 1016   STATUS:OLD                 
 FORMAT:FORMATTED              ACCESS:SEQUENTIAL          
 ACTION:READ                

 END OF DRN OPTIONS

 PROCESSING DRN DIMENSIONS
    MAXBOUND =     133
 END OF DRN DIMENSIONS

 RIV   -- RIV PACKAGE, VERSION 8, 2/22/2014 INPUT READ FROM UNIT 1014
 # File generated by Flopy version 3.3.5 on 04/25/2022 at 00:16:11.

 PROCESSING RIV OPTIONS
    AUXILIARY RIV VARIABLE: FID             
    RIV BOUNDARIES HAVE NAMES IN LAST COLUMN.
    FLOWS WILL BE SAVED TO BUDGET FILE SPECIFIED IN OUTPUT CONTROL
 END OF RIV OPTIONS

 PROCESSING RIV DIMENSIONS
    MAXBOUND =     794
 END OF RIV DIMENSIONS

 GHB   -- GHB PACKAGE, VERSION 8, 2/22/2014 INPUT READ FROM UNIT 1008
 # File generated by Flopy version 3.3.5 on 04/25/2022 at 00:16:11.

 PROCESSING GHB OPTIONS
    GHB BOUNDARIES HAVE NAMES IN LAST COLUMN.
    FLOWS WILL BE SAVED TO BUDGET FILE SPECIFIED IN OUTPUT CONTROL
 END OF GHB OPTIONS

 PROCESSING GHB DIMENSIONS
    MAXBOUND =     153
 END OF GHB DIMENSIONS

 RCH   -- RCH PACKAGE, VERSION 8, 2/22/2014 INPUT READ FROM UNIT 1009
 # File generated by Flopy version 3.3.5 on 04/25/2022 at 00:16:11.

 PROCESSING RCH OPTIONS
    RECHARGE INPUT WILL BE READ AS ARRAY(S).
    FLOWS WILL BE SAVED TO BUDGET FILE SPECIFIED IN OUTPUT CONTROL
 END OF RCH OPTIONS

 IC -- INITIAL CONDITIONS PACKAGE, VERSION 8, 3/28/2015 INPUT READ FROM UNIT 1006
 # File generated by Flopy version 3.3.5 on 04/25/2022 at 00:16:11.
 PROCESSING GRIDDATA

     INITIAL HEAD =   15.00000    
 END PROCESSING GRIDDATA
 PROCESSING GRIDDATA

                ICELLTYPE = 0

 OPENED ../com_ext/k.txt
 FILE TYPE:OPEN/CLOSE   UNIT 1017   STATUS:OLD                 
 FORMAT:FORMATTED              ACCESS:SEQUENTIAL          
 ACTION:READ                

 K33 not provided.  Assuming K33 = K.
 K22 not provided.  Assuming K22 = K.
 END PROCESSING GRIDDATA

The observation utility is active for "ML"
 # File generated by Flopy version 3.3.5 on 04/25/2022 at 00:16:11.

Processing observation options:

Text output number of digits of precision set to: 10
The PRINT_INPUT option has been specified.


 OBSERVATIONS READ FROM FILE "ml.obs"
 ----------------------------------------------------------------------------------------------------------------------------------------------------------------------------------------------------------------------------
 NAME                                     TYPE                                       TIME         LOCATION DATA                              OUTPUT FILENAME                                                                 
 ----------------------------------------------------------------------------------------------------------------------------------------------------------------------------------------------------------------------------
 PRG                                      CONTINUOUS  HEAD                           ALL TIMES    "1 16523"                                  sim/hds.csv                                                                     
 P8                                       CONTINUOUS  HEAD                           ALL TIMES    "1 10323"                                  sim/hds.csv                                                                     
 P24                                      CONTINUOUS  HEAD                           ALL TIMES    "1 9594"                                   sim/hds.csv                                                                     
 P25                                      CONTINUOUS  HEAD                           ALL TIMES    "1 13966"                                  sim/hds.csv                                                                     
 P32                                      CONTINUOUS  HEAD                           ALL TIMES    "1 15787"                                  sim/hds.csv                                                                     
 P33                                      CONTINUOUS  HEAD                           ALL TIMES    "1 15825"                                  sim/hds.csv                                                                     
 PF                                       CONTINUOUS  HEAD                           ALL TIMES    "1 21048"                                  sim/hds.csv                                                                     
 PH                                       CONTINUOUS  HEAD                           ALL TIMES    "1 20781"                                  sim/hds.csv                                                                     
 PZHM1                                    CONTINUOUS  HEAD                           ALL TIMES    "1 14521"                                  sim/hds.csv                                                                     
 P26                                      CONTINUOUS  HEAD                           ALL TIMES    "1 13141"                                  sim/hds.csv                                                                     
 P27                                      CONTINUOUS  HEAD                           ALL TIMES    "1 8465"                                   sim/hds.csv                                                                     
 P28                                      CONTINUOUS  HEAD                           ALL TIMES    "1 8924"                                   sim/hds.csv                                                                     
 P29                                      CONTINUOUS  HEAD                           ALL TIMES    "1 4524"                                   sim/hds.csv                                                                     
 P30                                      CONTINUOUS  HEAD                           ALL TIMES    "1 5255"                                   sim/hds.csv                                                                     
 R20                                      CONTINUOUS  HEAD                           ALL TIMES    "1 10676"                                  sim/hds.csv                                                                     
 R21                                      CONTINUOUS  HEAD                           ALL TIMES    "1 10403"                                  sim/hds.csv                                                                     
 P34                                      CONTINUOUS  HEAD                           ALL TIMES    "1 15131"                                  sim/hds.csv                                                                     
 P37                                      CONTINUOUS  HEAD                           ALL TIMES    "1 15755"                                  sim/hds.csv                                                                     
 P38                                      CONTINUOUS  HEAD                           ALL TIMES    "1 15045"                                  sim/hds.csv                                                                     
 P39                                      CONTINUOUS  HEAD                           ALL TIMES    "1 9637"                                   sim/hds.csv                                                                     
 P40                                      CONTINUOUS  HEAD                           ALL TIMES    "1 9312"                                   sim/hds.csv                                                                     
 AP1                                      CONTINUOUS  HEAD                           ALL TIMES    "1 9702"                                   sim/hds.csv                                                                     
 RCK1                                     CONTINUOUS  HEAD                           ALL TIMES    "1 15900"                                  sim/hds.csv                                                                     
 RCK2                                     CONTINUOUS  HEAD                           ALL TIMES    "1 15199"                                  sim/hds.csv                                                                     
 P23                                      CONTINUOUS  HEAD                           ALL TIMES    "1 6409"                                   sim/hds.csv                                                                     
 ----------------------------------------------------------------------------------------------------------------------------------------------------------------------------------------------------------------------------


    BINARY GRID INFORMATION WILL BE WRITTEN TO:
      UNIT NUMBER: 1019
      FILE NAME: /srv/common/ptrack/case_study/pst/ml_09/./ml.disv.grb

 OPENED /srv/common/ptrack/case_study/pst/ml_09/./ml.disv.grb
 FILE TYPE:DATA(BINARY)   UNIT 1019   STATUS:REPLACE             
 FORMAT:UNFORMATTED            ACCESS:STREAM              
 ACTION:READWRITE           

      THE LAST TIME STEP WILL BE PRINTED
      THE LAST TIME STEP WILL BE PRINTED
 # File generated by Flopy version 3.3.5 on 04/25/2022 at 00:16:11.

 PROCESSING OC OPTIONS

    BUDGET INFORMATION WILL BE WRITTEN TO:
      UNIT NUMBER: 1020
      FILE NAME: ml.cbc

 OPENED ml.cbc
 FILE TYPE:DATA(BINARY)   UNIT 1020   STATUS:REPLACE             
 FORMAT:UNFORMATTED            ACCESS:STREAM              
 ACTION:READWRITE           

    HEAD INFORMATION WILL BE WRITTEN TO:
      UNIT NUMBER: 1021
      FILE NAME: ml.hds

 OPENED ml.hds
 FILE TYPE:DATA(BINARY)   UNIT 1021   STATUS:REPLACE             
 FORMAT:UNFORMATTED            ACCESS:STREAM              
 ACTION:READWRITE           

 END OF OC OPTIONS

The observation utility is active for "DRN_0"
 # File generated by Flopy version 3.3.5 on 04/25/2022 at 00:16:11.

Processing observation options:



start timestep kper="1" kstp="1" mode="normal"


 BEGIN READING OUTPUT CONTROL FOR STRESS PERIOD 1
      THE LAST TIME STEP WILL BE SAVED
      THE LAST TIME STEP WILL BE SAVED

 END READING OUTPUT CONTROL FOR STRESS PERIOD 1

 OPENED ext/well_spd_1.txt
 FILE TYPE:OPEN/CLOSE   UNIT 1023   STATUS:OLD                 
 FORMAT:FORMATTED              ACCESS:SEQUENTIAL          
 ACTION:READ                


 OPENED ext/drn_spd_1.txt
 FILE TYPE:OPEN/CLOSE   UNIT 1024   STATUS:OLD                 
 FORMAT:FORMATTED              ACCESS:SEQUENTIAL          
 ACTION:READ                


 OPENED ext/riv_spd_1.txt
 FILE TYPE:OPEN/CLOSE   UNIT 1025   STATUS:OLD                 
 FORMAT:FORMATTED              ACCESS:SEQUENTIAL          
 ACTION:READ                


 OPENED ../com_ext/ghb_spd_1.txt
 FILE TYPE:OPEN/CLOSE   UNIT 1026   STATUS:OLD                 
 FORMAT:FORMATTED              ACCESS:SEQUENTIAL          
 ACTION:READ                


 OPENED ../com_ext/rech_spd_1.txt
 FILE TYPE:OPEN/CLOSE   UNIT 1027   STATUS:OLD                 
 FORMAT:FORMATTED              ACCESS:SEQUENTIAL          
 ACTION:READ                


 SLN_1 INNER ITERATION SUMMARY
 --------------------------------------------------------------------------------------------------------------------------------------
      TOTAL      OUTER      INNER                                                            MAXIMUM                                   
  ITERATION  ITERATION  ITERATION  MAXIMUM CHANGE      MAXIMUM CHANGE MODEL-(CELLID)        RESIDUAL    MAXIMUM RESIDUAL MODEL-(CELLID)
 --------------------------------------------------------------------------------------------------------------------------------------
          1          1          1       183.02295                    1_GWF-(1,26381)       1.9456501                     1_GWF-(1,7788)
          2          1          2       273.12319                    1_GWF-(1,26380)      -1.1319207                    1_GWF-(1,15907)
          3          1          3       157.73015                    1_GWF-(1,26444)      0.85981909                    1_GWF-(1,15907)
          4          1          4       83.451903                    1_GWF-(1,26380)      0.57278568                    1_GWF-(1,15226)
          5          1          5       66.866452                    1_GWF-(1,26520)     -0.37983618                    1_GWF-(1,15221)
          6          1          6       60.590454                    1_GWF-(1,26572)      0.46066853                    1_GWF-(1,15216)
          7          1          7       62.585535                    1_GWF-(1,26648)      0.40543557                    1_GWF-(1,15226)
          8          1          8       53.738328                    1_GWF-(1,26649)     -0.36501705                    1_GWF-(1,15226)
          9          1          9       39.188970                    1_GWF-(1,26589)      0.33233066                    1_GWF-(1,15221)
         10          1         10       32.740813                    1_GWF-(1,26543)     -0.17144150                    1_GWF-(1,15216)
         11          1         11       24.904318                    1_GWF-(1,26544)     -0.15705082                    1_GWF-(1,15226)
         12          1         12       21.047626                    1_GWF-(1,26420)      0.19894106                    1_GWF-(1,15221)
         13          1         13       18.532532                    1_GWF-(1,26422) -6.98504076E-02                    1_GWF-(1,15216)
         14          1         14       13.396152                    1_GWF-(1,26350) -9.26413565E-02                    1_GWF-(1,15221)
         15          1         15       8.6259007                    1_GWF-(1,26218)      0.10007594                    1_GWF-(1,15221)
         16          1         16      -8.2831880                    1_GWF-(1,26622)  4.54310785E-02                    1_GWF-(1,11047)
         17          1         17      -6.5759644                    1_GWF-(1,26623)     -0.11872141                    1_GWF-(1,15221)
         18          1         18      -6.2143388                    1_GWF-(1,26543)      0.12222234                    1_GWF-(1,15221)
         19          1         19      -6.8975280                    1_GWF-(1,26588)  6.15272876E-02                    1_GWF-(1,11152)
         20          1         20       10.425789                    1_GWF-(1,26588)     -0.10826215                    1_GWF-(1,15221)
         21          1         21      -8.4123431                    1_GWF-(1,26588)  6.75404004E-02                    1_GWF-(1,15221)
         22          1         22      -8.7428292                    1_GWF-(1,26543)  7.47719836E-02                    1_GWF-(1,15910)
         23          1         23      -7.7087078                    1_GWF-(1,26544)     -0.11418200                    1_GWF-(1,15221)
         24          1         24      -11.109345                    1_GWF-(1,26486)  5.14698299E-02                    1_GWF-(1,15221)
         25          1         25      -10.328429                    1_GWF-(1,26487)  8.71122071E-02                    1_GWF-(1,15910)
         26          1         26       10.921031                    1_GWF-(1,26487) -9.03276664E-02                    1_GWF-(1,15221)
         27          1         27       10.608516                    1_GWF-(1,26420) -5.25772388E-02                    1_GWF-(1,11203)
         28          1         28       6.3562754                    1_GWF-(1,26487)  6.36503520E-02                    1_GWF-(1,15910)
         29          1         29       4.5337834                    1_GWF-(1,26542) -5.85126902E-02                    1_GWF-(1,15221)
         30          1         30       5.1697992                    1_GWF-(1,26623) -3.41037211E-02                    1_GWF-(1,11050)
         31          1         31       3.8686647                    1_GWF-(1,26586)  4.61396043E-02                    1_GWF-(1,15910)
         32          1         32       3.9045572                    1_GWF-(1,26422) -5.11435787E-02                    1_GWF-(1,11203)
         33          1         33       4.3751044                    1_GWF-(1,26544) -4.38878964E-02                    1_GWF-(1,11200)
         34          1         34       3.9545541                    1_GWF-(1,26665)  2.86834745E-02                    1_GWF-(1,15910)
         35          1         35       3.5037073                    1_GWF-(1,26350) -2.89951942E-02                    1_GWF-(1,15221)
         36          1         36       3.7985574                    1_GWF-(1,26422) -2.45878709E-02                    1_GWF-(1,11200)
         37          1         37      -2.7576205                    1_GWF-(1,26422) -2.39914927E-02                    1_GWF-(1,11152)
         38          1         38      -3.5045342                    1_GWF-(1,26350) -2.82480068E-02                    1_GWF-(1,15216)
         39          1         39      -2.3818748                    1_GWF-(1,26622) -3.55307663E-02                    1_GWF-(1,11206)
         40          1         40      -2.4441759                    1_GWF-(1,26648)  2.76379301E-02                    1_GWF-(1,11108)
         41          1         41      -1.8835564                    1_GWF-(1,26649)  2.93761932E-02                    1_GWF-(1,11159)
         42          1         42      -1.7262663                    1_GWF-(1,26623)  3.61899560E-02                    1_GWF-(1,11197)
         43          1         43      -1.6347163                    1_GWF-(1,26586) -3.21601385E-02                    1_GWF-(1,11206)
         44          1         44      -1.2421838                    1_GWF-(1,26543)  3.96993740E-02                    1_GWF-(1,11206)
         45          1         45      -1.2245773                    1_GWF-(1,26486)  2.40544817E-02                    1_GWF-(1,11201)
         46          1         46       1.0253992                    1_GWF-(1,26649) -2.12708573E-02                    1_GWF-(1,11201)
         47          1         47       1.1857804                    1_GWF-(1,26648) -2.18876851E-02                    1_GWF-(1,12427)
         48          1         48      -1.5748372                    1_GWF-(1,26218)  2.48871660E-02                    1_GWF-(1,11197)
         49          1         49      -1.6061595                    1_GWF-(1,26217) -1.72194408E-02                    1_GWF-(1,11206)
         50          1         50       1.1538061                    1_GWF-(1,26217)  1.34456237E-02                    1_GWF-(1,11206)
         51          2          1      -609.77366                    1_GWF-(1,26381)      -3.3995074                    1_GWF-(1,26381)
         52          2          2      -220.01223                    1_GWF-(1,26513)       1.1520795                    1_GWF-(1,26381)
         53          2          3      -104.65437                    1_GWF-(1,26440)      0.72261519                    1_GWF-(1,26506)
         54          2          4      -62.925663                    1_GWF-(1,26665)     -0.29520157                    1_GWF-(1,26506)
         55          2          5      -52.736662                    1_GWF-(1,26649)      0.28522827                    1_GWF-(1,26381)
         56          2          6      -45.649923                    1_GWF-(1,26589)     -0.30905074                    1_GWF-(1,26381)
         57          2          7      -41.571415                    1_GWF-(1,26588)     -0.25961901                    1_GWF-(1,26506)
         58          2          8      -32.172586                    1_GWF-(1,26544)      0.13360838                    1_GWF-(1,26506)
         59          2          9      -25.671582                    1_GWF-(1,26487)     -0.11629844                    1_GWF-(1,26381)
         60          2         10      -19.089020                    1_GWF-(1,26421)     -0.12245326                    1_GWF-(1,26506)
         61          2         11      -17.116502                    1_GWF-(1,26348)  5.25702926E-02                    1_GWF-(1,26665)
         62          2         12      -13.077440                    1_GWF-(1,26218) -7.81697860E-02                    1_GWF-(1,26381)
         63          2         13      -7.9571431                    1_GWF-(1,26218) -7.32869054E-02                    1_GWF-(1,26506)
         64          2         14      -6.6411566                    1_GWF-(1,26649)  2.97212962E-02                    1_GWF-(1,26551)
         65          2         15      -8.1139801                    1_GWF-(1,26622) -6.70718163E-02                    1_GWF-(1,26381)
         66          2         16      -8.4553846                    1_GWF-(1,26623) -7.82941750E-02                    1_GWF-(1,26506)
         67          2         17      -7.0841403                    1_GWF-(1,26622)  4.21881528E-02                    1_GWF-(1,26551)
         68          2         18       7.0688390                    1_GWF-(1,26422) -7.94728357E-02                    1_GWF-(1,26381)
         69          2         19       7.0743976                    1_GWF-(1,26588) -7.34774191E-02                    1_GWF-(1,26506)
         70          2         20       9.0343612                    1_GWF-(1,26543) -3.93304791E-02                    1_GWF-(1,26447)
         71          2         21       10.398260                    1_GWF-(1,26588) -9.07252988E-02                    1_GWF-(1,26381)
         72          2         22       10.314831                    1_GWF-(1,26543) -6.94454375E-02                    1_GWF-(1,26506)
         73          2         23       7.3829159                    1_GWF-(1,26542) -5.50673769E-02                    1_GWF-(1,26447)
         74          2         24      -7.9141418                    1_GWF-(1,26487) -9.88077611E-02                    1_GWF-(1,26381)
         75          2         25      -10.294251                    1_GWF-(1,26486) -5.41037424E-02                    1_GWF-(1,26506)
         76          2         26      -11.294303                    1_GWF-(1,26487)  8.02002814E-02                    1_GWF-(1,26381)
         77          2         27      -7.8412322                    1_GWF-(1,26486)      0.10258354                    1_GWF-(1,26506)
         78          2         28      -4.5931495                    1_GWF-(1,26477) -5.02352199E-02                    1_GWF-(1,26506)
         79          2         29      -3.0248476                    1_GWF-(1,26649)  3.79143715E-02                    1_GWF-(1,26381)
         80          2         30       3.1949300                    1_GWF-(1,26420)  6.27619599E-02                    1_GWF-(1,26506)
         81          2         31      -2.7738549                    1_GWF-(1,26663) -4.55165631E-02                    1_GWF-(1,26506)
         82          2         32      -2.9676728                    1_GWF-(1,26421) -2.25377004E-02                    1_GWF-(1,26378)
         83          2         33      -3.7861259                    1_GWF-(1,26350) -4.92918883E-02                    1_GWF-(1,26381)
         84          2         34      -2.8028651                    1_GWF-(1,26422) -5.12499462E-02                    1_GWF-(1,26506)
         85          2         35       3.7906708                    1_GWF-(1,26422) -2.46967918E-02                    1_GWF-(1,26378)
         86          2         36       3.2677270                    1_GWF-(1,26350) -3.49264768E-02                    1_GWF-(1,26381)
         87          2         37      -3.0761019                    1_GWF-(1,26350) -4.56770744E-02                    1_GWF-(1,26506)
         88          2         38       2.8374980                    1_GWF-(1,26350) -2.01003950E-02                    1_GWF-(1,26378)
         89          2         39       3.3000956                    1_GWF-(1,26422) -3.02634715E-02                    1_GWF-(1,26381)
         90          2         40       2.1861652                    1_GWF-(1,26350) -4.32397720E-02                    1_GWF-(1,26506)
         91          2         41       1.3633068                    1_GWF-(1,26217)  2.68058679E-02                    1_GWF-(1,26506)
         92          2         42      0.96662743                    1_GWF-(1,26218)  1.64002882E-02                     1_GWF-(1,9691)
         93          2         43       1.0498981                    1_GWF-(1,26663)  2.71502299E-02                    1_GWF-(1,26381)
         94          2         44     -0.90855232                    1_GWF-(1,26217)  2.79611026E-02                    1_GWF-(1,26506)
         95          2         45     -0.75532240                    1_GWF-(1,26192)  2.15105264E-02                     1_GWF-(1,9692)
         96          2         46     -0.64265817                    1_GWF-(1,26242)  3.52765999E-02                     1_GWF-(1,9691)
         97          2         47     -0.76742510                    1_GWF-(1,26218)  3.60278979E-02                     1_GWF-(1,9692)
         98          2         48      -1.0752176                    1_GWF-(1,26217)  6.50600117E-02                     1_GWF-(1,9691)
         99          2         49      0.73812260                    1_GWF-(1,25377) -7.84603428E-02                     1_GWF-(1,9691)
        100          2         50     -0.70260316                    1_GWF-(1,23037)      0.11307941                     1_GWF-(1,9691)
        101          3          1      0.40163105                    1_GWF-(1,26674) -5.83249968E-02                     1_GWF-(1,9691)
        102          3          2      0.52564941                    1_GWF-(1,22782)      0.12409863                     1_GWF-(1,9691)
        103          3          3      0.66103849                    1_GWF-(1,26217)     -0.10779159                     1_GWF-(1,9691)
        104          3          4      0.68702125                    1_GWF-(1,26218)      0.10194066                     1_GWF-(1,9691)
        105          3          5      0.41011290                    1_GWF-(1,26422) -9.86401056E-02                     1_GWF-(1,9691)
        106          3          6     -0.34081351                    1_GWF-(1,26217)      0.11633259                     1_GWF-(1,9691)
        107          3          7      0.41027751                    1_GWF-(1,26194) -9.18767158E-02                     1_GWF-(1,9691)
        108          3          8      0.30133255                    1_GWF-(1,26407)  8.82790225E-02                     1_GWF-(1,9691)
        109          3          9      0.42001884                    1_GWF-(1,13206) -7.56511281E-02                     1_GWF-(1,9691)
        110          3         10      0.41826842                    1_GWF-(1,13192)  7.98085081E-02                     1_GWF-(1,9691)
        111          3         11     -0.42547722                    1_GWF-(1,26543) -6.05762647E-02                     1_GWF-(1,9691)
        112          3         12      0.54467209                    1_GWF-(1,26648)  5.91400302E-02                     1_GWF-(1,9691)
        113          3         13     -0.41006741                    1_GWF-(1,26623) -4.56328211E-02                     1_GWF-(1,9691)
        114          3         14     -0.41343678                    1_GWF-(1,26649)  4.44467080E-02                     1_GWF-(1,9691)
        115          3         15     -0.60387361                    1_GWF-(1,26648)  3.01982558E-02                     1_GWF-(1,9692)
        116          3         16     -0.52666285                    1_GWF-(1,26665)  3.04554774E-02                     1_GWF-(1,9691)
        117          3         17     -0.42165776                    1_GWF-(1,26674)  1.75354436E-02                     1_GWF-(1,9692)
        118          3         18      0.28574073                    1_GWF-(1,26350)  1.44069077E-02                     1_GWF-(1,9691)
        119          3         19      0.41433311                    1_GWF-(1,26665)  7.83740272E-03                     1_GWF-(1,9692)
        120          3         20      0.40191806                    1_GWF-(1,26674)  6.44048532E-03                     1_GWF-(1,9691)
        121          3         21      0.22092460                    1_GWF-(1,26422) -7.70908145E-03                    1_GWF-(1,16201)
        122          3         22      0.39733819                    1_GWF-(1,26350)  6.23921004E-03                     1_GWF-(1,9692)
        123          3         23      0.41184740                    1_GWF-(1,26422)  9.89897643E-03                     1_GWF-(1,9691)
        124          3         24      0.52802933                    1_GWF-(1,26420)  8.97775861E-03                     1_GWF-(1,9692)
        125          3         25      0.47583180                    1_GWF-(1,26422)  1.01285635E-02                     1_GWF-(1,9691)
        126          3         26      0.50591871                    1_GWF-(1,26420)  5.97206243E-03                     1_GWF-(1,9692)
        127          3         27      0.43561093                    1_GWF-(1,26487) -5.51236707E-03                    1_GWF-(1,16201)
        128          3         28     -0.41665720                    1_GWF-(1,26487)  7.75311933E-03                     1_GWF-(1,9691)
        129          3         29     -0.55599328                    1_GWF-(1,26486)  6.85204059E-03                     1_GWF-(1,9692)
        130          3         30     -0.40732473                    1_GWF-(1,26487)  6.89477200E-03                     1_GWF-(1,9691)
        131          3         31     -0.37611743                    1_GWF-(1,26486)  4.12952729E-03                    1_GWF-(1,11145)
        132          3         32     -0.35066863                    1_GWF-(1,26588)  3.68655937E-03                    1_GWF-(1,16201)
        133          3         33     -0.38260098                    1_GWF-(1,26543)  4.98831397E-03                     1_GWF-(1,9691)
        134          3         34     -0.45463754                    1_GWF-(1,26588)  5.10992750E-03                     1_GWF-(1,9692)
        135          3         35      0.34367169                    1_GWF-(1,26588)  5.24046612E-03                     1_GWF-(1,9691)
        136          3         36      0.26603776                    1_GWF-(1,26665)  4.79460847E-03                    1_GWF-(1,11147)
        137          3         37      0.37234834                    1_GWF-(1,26649)  4.82292938E-03                    1_GWF-(1,11048)
        138          3         38      0.46136597                    1_GWF-(1,26622)  4.33816642E-03                    1_GWF-(1,16201)
        139          3         39     -0.38176368                    1_GWF-(1,26622)  3.97642342E-03                    1_GWF-(1,11133)
        140          3         40     -0.30227809                    1_GWF-(1,26623) -4.04950618E-03                    1_GWF-(1,11149)
        141          3         41     -0.24090252                    1_GWF-(1,26666)  4.17224656E-03                    1_GWF-(1,16201)
        142          3         42     -0.35061268                    1_GWF-(1,26665)  3.44787481E-03                    1_GWF-(1,11152)
        143          3         43     -0.31604743                    1_GWF-(1,26666)  3.73870850E-03                    1_GWF-(1,11135)
        144          3         44     -0.28600843                    1_GWF-(1,26665)  3.60839813E-03                    1_GWF-(1,16201)
        145          3         45      0.29174595                    1_GWF-(1,26665)  4.36305707E-03                    1_GWF-(1,11053)
        146          3         46      0.23743598                    1_GWF-(1,26666) -2.95689557E-03                    1_GWF-(1,11059)
        147          3         47     -0.17315004                    1_GWF-(1,26543) -3.15299366E-03                    1_GWF-(1,11054)
        148          3         48     -0.16903874                    1_GWF-(1,26542)  2.91172192E-03                    1_GWF-(1,10966)
        149          3         49     -0.20025753                    1_GWF-(1,26623)  3.09760916E-03                    1_GWF-(1,11156)
        150          3         50     -0.16911304                    1_GWF-(1,26586)  2.27458519E-03                    1_GWF-(1,11155)
        151          4          1     -0.30042184                    1_GWF-(1,11428) -8.10689868E-03                    1_GWF-(1,10745)
        152          4          2     -0.25031375                    1_GWF-(1,11421) -5.92431592E-03                    1_GWF-(1,15063)
        153          4          3     -0.19631003                    1_GWF-(1,11401)  3.43681373E-03                    1_GWF-(1,15063)
        154          4          4     -0.17502403                    1_GWF-(1,11393)  2.62332697E-03                    1_GWF-(1,15062)
        155          4          5     -0.14514046                    1_GWF-(1,11403)  2.64225511E-03                    1_GWF-(1,15067)
        156          4          6 -9.56472347E-02                    1_GWF-(1,11318)  2.71592600E-03                    1_GWF-(1,15063)
        157          4          7      0.11269809                    1_GWF-(1,11403)  2.77446233E-03                    1_GWF-(1,10651)
        158          4          8      0.10592093                    1_GWF-(1,11318) -2.60750972E-03                    1_GWF-(1,15062)
        159          4          9      0.11349970                    1_GWF-(1,11456) -2.72785854E-03                    1_GWF-(1,15067)
        160          4         10     -0.14003450                    1_GWF-(1,26665) -2.22910745E-03                    1_GWF-(1,15058)
        161          4         11      0.12487267                    1_GWF-(1,26665) -2.01046668E-03                    1_GWF-(1,15062)
        162          4         12 -7.07816272E-02                    1_GWF-(1,26665) -2.31392377E-03                    1_GWF-(1,15067)
        163          4         13 -7.93014070E-02                    1_GWF-(1,26622) -1.79233704E-03                    1_GWF-(1,15058)
        164          4         14  8.10623616E-02                    1_GWF-(1,26622) -8.62892823E-04                    1_GWF-(1,15070)
        165          4         15  6.26089559E-02                    1_GWF-(1,26649)  9.89570867E-04                    1_GWF-(1,15058)
        166          4         16  5.35642029E-02                    1_GWF-(1,26622) -1.24241568E-03                    1_GWF-(1,15058)
        167          4         17 -4.28304191E-02                    1_GWF-(1,26218) -1.22641684E-03                    1_GWF-(1,15079)
        168          4         18 -5.15971294E-02                    1_GWF-(1,26588)  1.31239345E-03                    1_GWF-(1,15069)
        169          4         19 -6.14113831E-02                    1_GWF-(1,26543) -1.24070403E-03                    1_GWF-(1,15058)
        170          4         20 -7.87106825E-02                    1_GWF-(1,26588)  1.05604774E-03                    1_GWF-(1,10961)
        171          4         21 -6.07907333E-02                    1_GWF-(1,26543)  9.16888352E-04                    1_GWF-(1,15069)
        172          4         22 -4.17328903E-02                    1_GWF-(1,26588) -1.02456533E-03                    1_GWF-(1,10961)
        173          4         23 -4.09414764E-02                    1_GWF-(1,26486) -1.12845282E-03                    1_GWF-(1,15079)
        174          4         24  4.89547568E-02                    1_GWF-(1,26486) -1.08332724E-03                    1_GWF-(1,15078)
        175          4         25 -6.01649557E-02                    1_GWF-(1,26486)  7.61944721E-04                    1_GWF-(1,10959)
        176          4         26 -5.76858823E-02                    1_GWF-(1,26487) -1.12954311E-03                    1_GWF-(1,15079)
        177          4         27 -5.30691507E-02                    1_GWF-(1,26420) -1.44205028E-03                    1_GWF-(1,15078)
        178          4         28 -5.52687161E-02                    1_GWF-(1,26422)  1.41678242E-03                    1_GWF-(1,15078)
        179          4         29 -5.57591318E-02                    1_GWF-(1,26350)  1.16229221E-03                    1_GWF-(1,15083)
        180          4         30 -4.82405931E-02                    1_GWF-(1,26422)  8.64232041E-04                     1_GWF-(1,5697)
        181          4         31  5.78144968E-02                    1_GWF-(1,26422)  1.03658559E-03                    1_GWF-(1,15078)
        182          4         32  5.00739244E-02                    1_GWF-(1,26350)  1.04194948E-03                    1_GWF-(1,15083)
        183          4         33  4.11538609E-02                    1_GWF-(1,26422) -8.68240349E-04                    1_GWF-(1,15083)
        184          4         34  3.24572696E-02                    1_GWF-(1,26350) -7.84082070E-04                    1_GWF-(1,11145)
        185          4         35 -2.65960250E-02                    1_GWF-(1,11459) -7.01921113E-04                    1_GWF-(1,11148)
        186          4         36 -2.52970839E-02                    1_GWF-(1,11365)  8.60733973E-04                     1_GWF-(1,9691)
        187          4         37 -1.67821563E-02                    1_GWF-(1,11366)  9.26610721E-04                     1_GWF-(1,9692)
        188          4         38  2.95862805E-02                    1_GWF-(1,11454)  1.40378415E-03                     1_GWF-(1,9691)
        189          4         39 -1.77598891E-02                    1_GWF-(1,26217)  1.44577216E-03                     1_GWF-(1,9692)
        190          4         40 -1.91782000E-02                    1_GWF-(1,11380)  2.24722345E-03                     1_GWF-(1,9691)
        191          4         41 -1.40196369E-02                    1_GWF-(1,13539)  2.10541267E-03                     1_GWF-(1,9692)
        192          4         42  1.22804476E-02                    1_GWF-(1,11365)  2.95815170E-03                     1_GWF-(1,9691)
        193          4         43 -1.38683592E-02                    1_GWF-(1,11369) -2.80792704E-03                     1_GWF-(1,9691)
        194          4         44  1.18601298E-02                    1_GWF-(1,11453)  3.18989768E-03                     1_GWF-(1,9691)
        195          4         45  1.14061911E-02                    1_GWF-(1,26218) -3.01767172E-03                     1_GWF-(1,9691)
        196          4         46 -7.29442923E-03                    1_GWF-(1,14224)  3.41482851E-03                     1_GWF-(1,9691)
        197          4         47  7.64530771E-03                    1_GWF-(1,11701) -2.88819492E-03                     1_GWF-(1,9691)
        198          4         48  6.92275837E-03                    1_GWF-(1,11454)  3.26312369E-03                     1_GWF-(1,9691)
        199          4         49  7.33304667E-03                    1_GWF-(1,11381) -2.62555260E-03                     1_GWF-(1,9691)
        200          4         50  9.04923443E-03                    1_GWF-(1,11458)  2.74736844E-03                     1_GWF-(1,9691)
        201          5          1 -5.31770975E-02                    1_GWF-(1,11378)  1.03891283E-03                     1_GWF-(1,9692)
        202          5          2 -3.40123375E-02                    1_GWF-(1,11369)  3.00500231E-03                     1_GWF-(1,9691)
        203          5          3 -1.97568644E-02                    1_GWF-(1,11454) -3.15528794E-03                     1_GWF-(1,9691)
        204          5          4  1.99258336E-02                    1_GWF-(1,11367)  2.78990669E-03                     1_GWF-(1,9691)
        205          5          5 -2.19493999E-02                    1_GWF-(1,11373) -2.48398623E-03                     1_GWF-(1,9691)
        206          5          6  1.84159063E-02                    1_GWF-(1,11373)  2.75045870E-03                     1_GWF-(1,9691)
        207          5          7  2.65090674E-02                    1_GWF-(1,11378) -2.02621266E-03                     1_GWF-(1,9691)
        208          5          8  1.91472497E-02                    1_GWF-(1,11368)  1.87131135E-03                     1_GWF-(1,9691)
        209          5          9 -1.52068653E-02                    1_GWF-(1,11368) -1.56960186E-03                     1_GWF-(1,9691)
        210          5         10 -1.66242152E-02                    1_GWF-(1,11451)  1.50095081E-03                     1_GWF-(1,9691)
        211          5         11 -2.29202262E-02                    1_GWF-(1,11378) -8.75411667E-04                     1_GWF-(1,9691)
        212          5         12 -1.85755258E-02                    1_GWF-(1,11368)  8.50567889E-04                     1_GWF-(1,9691)
        213          5         13 -1.58548582E-02                    1_GWF-(1,11451)  5.39805738E-04                     1_GWF-(1,9692)
        214          5         14  1.44332936E-02                    1_GWF-(1,11451)  5.04246148E-04                     1_GWF-(1,9691)
        215          5         15  1.47782245E-02                    1_GWF-(1,11452)  2.96682356E-04                    1_GWF-(1,10651)
        216          5         16  1.18446582E-02                    1_GWF-(1,11368)  2.20429755E-04                    1_GWF-(1,10652)
        217          5         17 -9.31417883E-03                    1_GWF-(1,26487)  2.00972583E-04                    1_GWF-(1,10651)
        218          5         18 -1.23749019E-02                    1_GWF-(1,26486)  1.61430223E-04                    1_GWF-(1,11352)
        219          5         19 -1.02637305E-02                    1_GWF-(1,26588) -3.41099925E-04                    1_GWF-(1,10651)
        220          5         20 -8.65355741E-03                    1_GWF-(1,11415) -2.77485010E-04                    1_GWF-(1,10652)
        221          5         21 -8.58561054E-03                    1_GWF-(1,11454) -3.00795427E-04                    1_GWF-(1,10651)
        222          5         22 -8.93250764E-03                    1_GWF-(1,11452) -1.35796362E-04                    1_GWF-(1,10652)
        223          5         23 -7.86035848E-03                    1_GWF-(1,11415)  9.95539577E-05                    1_GWF-(1,11039)
        224          5         24  7.54427361E-03                    1_GWF-(1,26422)  1.43449536E-04                    1_GWF-(1,11352)
        225          5         25  8.16075635E-03                    1_GWF-(1,26350)  1.15400174E-04                     1_GWF-(1,9692)
        226          5         26  8.36426398E-03                    1_GWF-(1,26486)  1.66427207E-04                     1_GWF-(1,9691)
        227          5         27  6.72477032E-03                    1_GWF-(1,26544)  1.33730660E-04                    1_GWF-(1,10651)
        228          5         28  6.37744728E-03                    1_GWF-(1,26486)  8.16356850E-05                     1_GWF-(1,9691)
        229          5         29  6.42321929E-03                    1_GWF-(1,26622) -9.37813900E-05                    1_GWF-(1,10651)
        230          5         30  5.97742713E-03                    1_GWF-(1,26649) -1.20403869E-04                    1_GWF-(1,10652)
        231          5         31  4.98151928E-03                    1_GWF-(1,26422)  1.62839375E-04                     1_GWF-(1,9691)
        232          5         32 -5.53481129E-03                    1_GWF-(1,26422)  1.03713235E-04                     1_GWF-(1,9692)
        233          5         33 -4.96797588E-03                    1_GWF-(1,26350)  1.06297126E-04                    1_GWF-(1,11352)
        234          5         34 -4.45217519E-03                    1_GWF-(1,26422)  8.94707738E-05                    1_GWF-(1,10966)
        235          5         35 -5.76228834E-03                    1_GWF-(1,26588)  7.80794739E-05                    1_GWF-(1,10651)
        236          5         36  6.05170618E-03                    1_GWF-(1,26588)  7.64030611E-05                    1_GWF-(1,11352)
        237          5         37 -7.00961239E-03                    1_GWF-(1,26588)  7.95056485E-05                    1_GWF-(1,11351)
        238          5         38 -5.01913484E-03                    1_GWF-(1,26589) -8.48326785E-05                    1_GWF-(1,11351)
        239          5         39 -5.21221458E-03                    1_GWF-(1,26588) -8.63544503E-05                    1_GWF-(1,10651)
        240          5         40 -5.57743933E-03                    1_GWF-(1,26665)  9.49033249E-05                    1_GWF-(1,10651)
        241          5         41  6.32084380E-03                    1_GWF-(1,26665)  1.11149555E-04                    1_GWF-(1,10652)
        242          5         42 -6.14818508E-03                    1_GWF-(1,26665)  1.28866179E-04                    1_GWF-(1,10651)
        243          5         43  5.90184431E-03                    1_GWF-(1,26665)  8.74586827E-05                    1_GWF-(1,11351)
        244          5         44 -3.72181862E-03                    1_GWF-(1,26665)  7.82190668E-05                    1_GWF-(1,10652)
        245          5         45  2.78704553E-03                    1_GWF-(1,11294)  1.19109340E-04                    1_GWF-(1,10651)
        246          5         46  3.12130105E-03                    1_GWF-(1,11305)  9.63255887E-05                    1_GWF-(1,10652)
        247          5         47  2.62363403E-03                    1_GWF-(1,11414)  9.42138771E-05                    1_GWF-(1,10651)
        248          5         48  2.73621692E-03                    1_GWF-(1,11413) -1.20609741E-04                    1_GWF-(1,10651)
        249          5         49  2.33288229E-03                    1_GWF-(1,26217)  1.43749449E-04                    1_GWF-(1,10651)
        250          5         50 -3.03569890E-03                     1_GWF-(1,8033)  1.23116701E-04                    1_GWF-(1,10652)
        251          6          1 -5.62028435E-03                    1_GWF-(1,11374)  1.10032737E-04                    1_GWF-(1,10651)
        252          6          2 -2.29553493E-03                    1_GWF-(1,11436) -1.11595130E-04                    1_GWF-(1,10651)
        253          6          3 -2.52661633E-03                    1_GWF-(1,26218)  1.40006178E-04                    1_GWF-(1,10651)
        254          6          4 -2.74170696E-03                    1_GWF-(1,11374)  7.89144069E-05                    1_GWF-(1,10652)
        255          6          5 -2.50702045E-03                    1_GWF-(1,26218)  9.21049411E-05                    1_GWF-(1,10651)
        256          6          6 -2.20225125E-03                    1_GWF-(1,26217)  6.32877626E-05                    1_GWF-(1,10652)
        257          6          7  2.08746370E-03                    1_GWF-(1,11316)  6.06526811E-05                    1_GWF-(1,10651)
        258          6          8 -2.60521996E-03                    1_GWF-(1,26665)  4.40956510E-05                    1_GWF-(1,10651)
        259          6          9 -2.67545899E-03                    1_GWF-(1,26666)  5.28051860E-05                    1_GWF-(1,10652)
        260          6         10 -2.77363431E-03                    1_GWF-(1,26665)  4.48345411E-05                    1_GWF-(1,10651)
        261          6         11  2.05266572E-03                    1_GWF-(1,26665) -5.52361716E-05                    1_GWF-(1,10651)
        262          6         12  1.35279641E-03                    1_GWF-(1,26588) -3.10077463E-05                    1_GWF-(1,10652)
        263          6         13  1.48828729E-03                    1_GWF-(1,26589)  1.83363973E-05                    1_GWF-(1,15188)
        264          6         14  2.24282801E-03                    1_GWF-(1,26588) -3.02900084E-05                    1_GWF-(1,10651)
        265          6         15  1.95278726E-03                    1_GWF-(1,26543) -2.31609745E-05                    1_GWF-(1,14801)
        266          6         16  2.07401382E-03                    1_GWF-(1,26588)  2.05382679E-05                    1_GWF-(1,10966)
        267          6         17  1.17503703E-03                    1_GWF-(1,26543) -2.26423662E-05                    1_GWF-(1,10966)
        268          6         18 -1.18896698E-03                    1_GWF-(1,26422) -2.98867825E-05                    1_GWF-(1,15080)
        269          6         19  1.30384202E-03                    1_GWF-(1,26422) -4.14307525E-05                    1_GWF-(1,10651)
        270          6         20  1.25724216E-03                    1_GWF-(1,26350) -3.20495939E-05                    1_GWF-(1,10652)
        271          6         21 -1.19371099E-03                    1_GWF-(1,26649) -3.89074721E-05                    1_GWF-(1,10651)
        272          6         22 -1.49528266E-03                    1_GWF-(1,26622)  1.44468415E-05                    1_GWF-(1,10864)
        273          6         23 -1.58534658E-03                    1_GWF-(1,26649)  2.84634511E-05                    1_GWF-(1,10651)
        274          6         24 -1.49437962E-03                    1_GWF-(1,26544) -4.60267892E-05                    1_GWF-(1,10651)
        275          6         25 -1.65529336E-03                    1_GWF-(1,26486) -3.71770688E-05                    1_GWF-(1,10652)
        276          6         26 -1.60010455E-03                    1_GWF-(1,26350) -2.18735679E-05                    1_GWF-(1,14800)
        277          6         27 -1.39847836E-03                    1_GWF-(1,26422) -1.69137423E-05                    1_GWF-(1,10654)
        278          6         28  1.04858608E-03                    1_GWF-(1,26486) -2.33238896E-05                    1_GWF-(1,10652)
        279          6         29  1.04255794E-03                    1_GWF-(1,26544) -3.21758803E-05                    1_GWF-(1,10651)
        280          6         30  1.25907552E-03                    1_GWF-(1,26486)  2.93957599E-05                    1_GWF-(1,10651)
        281          6         31  1.13173055E-03                    1_GWF-(1,26544) -5.24337764E-05                    1_GWF-(1,10651)
        282          6         32  1.03972831E-03                    1_GWF-(1,26486)  3.07415444E-05                    1_GWF-(1,10651)
        283          6         33  7.45668505E-04                    1_GWF-(1,26487)  3.05564061E-05                    1_GWF-(1,10652)
        284          6         34  8.00658444E-04                    1_GWF-(1,26486)  1.40143474E-05                     1_GWF-(1,9692)
        285          6         35 -7.91261400E-04                    1_GWF-(1,26622) -1.27524977E-05                    1_GWF-(1,10652)
        286          6         36 -6.71753811E-04                    1_GWF-(1,26623)  1.83796665E-05                    1_GWF-(1,14801)
        287          6         37 -5.31407096E-04                    1_GWF-(1,26420)  3.07840843E-05                    1_GWF-(1,10651)
        288          6         38  6.20599238E-04                    1_GWF-(1,11451)  2.93322655E-05                     1_GWF-(1,9691)
        289          6         39  6.36033336E-04                    1_GWF-(1,11368)  3.15149119E-05                     1_GWF-(1,9692)
        290          6         40  5.64538217E-04                    1_GWF-(1,11378)  5.03989528E-05                     1_GWF-(1,9691)
        291          6         41 -5.25963658E-04                    1_GWF-(1,11378) -5.34376199E-05                     1_GWF-(1,9691)
        292          6         42 -4.68742491E-04                    1_GWF-(1,11450)  7.10039051E-05                     1_GWF-(1,9691)
        293          6         43 -4.71158405E-04                    1_GWF-(1,11368) -7.46619896E-05                     1_GWF-(1,9691)
        294          6         44 -4.34534013E-04                    1_GWF-(1,11378)  9.03136111E-05                     1_GWF-(1,9691)
        295          6         45 -3.80572894E-04                    1_GWF-(1,11373) -9.21133009E-05                     1_GWF-(1,9691)
        296          6         46  4.75626750E-04                    1_GWF-(1,11373)  1.11683230E-04                     1_GWF-(1,9691)
        297          6         47 -4.55219213E-04                    1_GWF-(1,11369) -1.08748436E-04                     1_GWF-(1,9691)
        298          6         48  4.54892933E-04                    1_GWF-(1,11451)  1.12342033E-04                     1_GWF-(1,9691)
        299          6         49  7.11047781E-04                    1_GWF-(1,11369) -7.52010900E-05                     1_GWF-(1,9691)
        300          6         50  9.81592044E-04                    1_GWF-(1,11378)  9.96243042E-05                     1_GWF-(1,9691)
        301          7          1 -1.09053620E-03                    1_GWF-(1,11378) -7.65116674E-05                     1_GWF-(1,9691)
        302          7          2 -6.41268474E-04                    1_GWF-(1,11369)  9.68733643E-05                     1_GWF-(1,9691)
        303          7          3 -4.54673934E-04                    1_GWF-(1,11451) -9.00946947E-05                     1_GWF-(1,9691)
        304          7          4  3.47832276E-04                    1_GWF-(1,11369)  8.93779638E-05                     1_GWF-(1,9691)
        305          7          5 -4.04661175E-04                    1_GWF-(1,11373) -6.91140246E-05                     1_GWF-(1,9691)
        306          7          6  3.68895204E-04                    1_GWF-(1,11373)  6.27812677E-05                     1_GWF-(1,9691)
        307          7          7  2.90870255E-04                    1_GWF-(1,11378) -4.99048448E-05                     1_GWF-(1,9691)
        308          7          8  2.68091732E-04                    1_GWF-(1,11368)  4.57432575E-05                     1_GWF-(1,9691)
        309          7          9  2.71351773E-04                    1_GWF-(1,11373) -3.25509575E-05                     1_GWF-(1,9691)
        310          7         10 -2.42218387E-04                    1_GWF-(1,11373)  2.84472402E-05                     1_GWF-(1,9691)
        311          7         11 -3.08230102E-04                    1_GWF-(1,11378)  1.71359199E-05                     1_GWF-(1,9692)
        312          7         12 -2.82520794E-04                    1_GWF-(1,11368)  1.63587569E-05                     1_GWF-(1,9691)
        313          7         13 -2.50874182E-04                    1_GWF-(1,11451)  9.74093564E-06                    1_GWF-(1,10653)
        314          7         14 -3.50524683E-04                    1_GWF-(1,26588)  5.74406560E-06                    1_GWF-(1,10654)
        315          7         15 -3.64057658E-04                    1_GWF-(1,26543)  7.62189611E-06                     1_GWF-(1,9691)
        316          7         16 -4.11273539E-04                    1_GWF-(1,26588)  8.10741612E-06                     1_GWF-(1,9692)
        317          7         17  2.82124758E-04                    1_GWF-(1,26588)  9.25443765E-06                     1_GWF-(1,9691)
        318          7         18 -2.10849579E-04                    1_GWF-(1,26588)  9.68698624E-06                    1_GWF-(1,10653)
        319          7         19 -2.42612191E-04                    1_GWF-(1,26486) -1.11269805E-05                    1_GWF-(1,10651)
        320          7         20 -2.88343807E-04                    1_GWF-(1,26544) -6.98054559E-06                    1_GWF-(1,10654)
        321          7         21 -4.29956225E-04                    1_GWF-(1,26486)  3.41074641E-06                     1_GWF-(1,5611)
        322          7         22 -3.80339098E-04                    1_GWF-(1,26487) -6.56880106E-06                    1_GWF-(1,10651)
        323          7         23  2.53308295E-04                    1_GWF-(1,26487)  5.31070591E-06                    1_GWF-(1,10653)
        324          7         24  2.29908554E-04                    1_GWF-(1,26420) -7.15213005E-06                    1_GWF-(1,10653)
        325          7         25  2.12799900E-04                    1_GWF-(1,26421)  3.16892803E-06                    1_GWF-(1,11058)
        326          7         26  1.75376269E-04                    1_GWF-(1,26420)  3.12250220E-06                    1_GWF-(1,10958)
        327          7         27  2.09843065E-04                    1_GWF-(1,26486)  3.73587052E-06                    1_GWF-(1,10966)
        328          7         28  1.70811239E-04                    1_GWF-(1,26544) -3.41886207E-06                    1_GWF-(1,10654)
        329          7         29  1.80152678E-04                    1_GWF-(1,26486) -3.61459534E-06                    1_GWF-(1,10651)
        330          7         30  1.96636383E-04                    1_GWF-(1,26622)  2.09143575E-06                     1_GWF-(1,9691)
        331          7         31  2.23234925E-04                    1_GWF-(1,26649)  3.75329722E-06                    1_GWF-(1,10961)
        332          7         32  1.76212553E-04                    1_GWF-(1,26622) -4.55292599E-06                    1_GWF-(1,10653)
        333          7         33 -1.60239408E-04                    1_GWF-(1,26422)  4.60881151E-06                    1_GWF-(1,10653)
        334          7         34  1.74848254E-04                    1_GWF-(1,26422)  3.52251119E-06                     1_GWF-(1,9691)
        335          7         35  1.62455551E-04                    1_GWF-(1,26350)  3.06573419E-06                    1_GWF-(1,10966)
        336          7         36 -1.32635839E-04                    1_GWF-(1,26623)  2.13613567E-06                     1_GWF-(1,9691)
        337          7         37 -1.30846544E-04                    1_GWF-(1,26665) -2.23943949E-06                    1_GWF-(1,10961)
        338          7         38 -1.45255165E-04                    1_GWF-(1,26623) -2.09057306E-06                    1_GWF-(1,10481)
        339          7         39 -1.58421553E-04                    1_GWF-(1,26665) -3.07304909E-06                    1_GWF-(1,10653)
        340          7         40 -1.26185748E-04                    1_GWF-(1,26666)  1.95609116E-06                    1_GWF-(1,10653)
        341          7         41 -1.40039063E-04                    1_GWF-(1,26350)  2.86202430E-06                     1_GWF-(1,9691)
        342          7         42 -1.39483581E-04                    1_GWF-(1,26422)  2.28366877E-06                    1_GWF-(1,10966)
        343          7         43 -1.24014925E-04                    1_GWF-(1,26350)  3.19864102E-06                    1_GWF-(1,10653)
        344          7         44 -1.06547605E-04                    1_GWF-(1,26422)  2.85082417E-06                    1_GWF-(1,10658)
        345          7         45  7.45584428E-05                    1_GWF-(1,26217)  4.51454780E-06                    1_GWF-(1,10653)
        346          7         46  8.23403478E-05                    1_GWF-(1,26218) -3.14013255E-06                    1_GWF-(1,10653)
        347          7         47  8.66048791E-05                    1_GWF-(1,26422)  4.13456861E-06                    1_GWF-(1,10653)
        348          7         48  8.83065411E-05                    1_GWF-(1,26218) -3.54594570E-06                    1_GWF-(1,10653)
        349          7         49  7.02294473E-05                    1_GWF-(1,26217)  4.95430306E-06                    1_GWF-(1,10653)
        350          7         50  1.01057138E-04                    1_GWF-(1,11374) -4.58178113E-06                    1_GWF-(1,10653)
        351          8          1 -9.80754134E-05                    1_GWF-(1,11374)  4.68121165E-06                    1_GWF-(1,10653)
        352          8          2 -6.57870913E-05                    1_GWF-(1,11436)  3.61615110E-06                    1_GWF-(1,10654)
        353          8          3 -7.90962260E-05                    1_GWF-(1,26218)  3.94657216E-06                    1_GWF-(1,10653)
        354          8          4 -7.38042323E-05                    1_GWF-(1,26217) -3.12610451E-06                    1_GWF-(1,10653)
        355          8          5 -7.09257364E-05                    1_GWF-(1,26218)  3.57963538E-06                    1_GWF-(1,10653)
        356          8          6 -5.48078190E-05                    1_GWF-(1,26217)  1.89508767E-06                    1_GWF-(1,10658)
        357          8          7  6.10768620E-05                    1_GWF-(1,11316)  1.46838884E-06                    1_GWF-(1,10653)
        358          8          8 -8.34496961E-05                    1_GWF-(1,26622)  1.50416898E-06                    1_GWF-(1,10650)
        359          8          9 -8.30985971E-05                    1_GWF-(1,26623)  1.48210095E-06                    1_GWF-(1,10658)
        360          8         10 -6.81859297E-05                    1_GWF-(1,26622) -1.09440286E-06                    1_GWF-(1,10654)
        361          8         11  4.94341220E-05                    1_GWF-(1,26350) -1.02111439E-06                    1_GWF-(1,10651)
        362          8         12  5.54534272E-05                    1_GWF-(1,26422)  7.90809382E-07                     1_GWF-(1,9691)
        363          8         13  4.84530368E-05                    1_GWF-(1,26350) -7.04857701E-07                    1_GWF-(1,10654)
        364          8         14 -5.66579927E-05                    1_GWF-(1,26350) -1.41903005E-06                    1_GWF-(1,10653)
        365          8         15 -6.00201918E-05                    1_GWF-(1,26422)  8.54217564E-07                    1_GWF-(1,10653)
        366          8         16 -6.46276421E-05                    1_GWF-(1,26420)  6.87565752E-07                    1_GWF-(1,10966)
        367          8         17 -6.57784199E-05                    1_GWF-(1,26487) -8.68105726E-07                    1_GWF-(1,10966)
        368          8         18 -6.80202572E-05                    1_GWF-(1,26486)  8.36314058E-07                    1_GWF-(1,10653)
        369          8         19 -5.35446148E-05                    1_GWF-(1,26544) -1.08916971E-06                    1_GWF-(1,10653)
        370          8         20 -5.38653684E-05                    1_GWF-(1,26486)  8.86556556E-07                    1_GWF-(1,10961)
        371          8         21 -5.11706441E-05                    1_GWF-(1,26622) -5.94311071E-07                    1_GWF-(1,10652)
        372          8         22 -4.25521396E-05                    1_GWF-(1,26543) -8.81649567E-07                    1_GWF-(1,10653)
        373          8         23 -4.18246190E-05                    1_GWF-(1,26588) -1.19945511E-06                    1_GWF-(1,10654)
        374          8         24 -4.45532187E-05                    1_GWF-(1,26350) -1.29043139E-06                    1_GWF-(1,10653)
        375          8         25 -4.28566114E-05                    1_GWF-(1,26422) -7.60059966E-07                    1_GWF-(1,10652)
        376          8         26  4.58467343E-05                    1_GWF-(1,26588)  5.58806942E-07                    1_GWF-(1,11058)
        377          8         27  3.99342923E-05                    1_GWF-(1,26665) -9.55365256E-07                    1_GWF-(1,10653)
        378          8         28  3.88466668E-05                    1_GWF-(1,26588) -8.04844913E-07                    1_GWF-(1,10658)
        379          8         29  3.70050489E-05                    1_GWF-(1,26665) -8.95840073E-07                    1_GWF-(1,10650)
        380          8         30  4.32227433E-05                    1_GWF-(1,26350) -6.70557802E-07                    1_GWF-(1,10654)
        381          8         31  4.32639226E-05                    1_GWF-(1,26422)  4.65789927E-07                    1_GWF-(1,15078)
        382          8         32  3.41958490E-05                    1_GWF-(1,26420) -5.73315329E-07                    1_GWF-(1,10650)
        383          8         33  3.02392383E-05                    1_GWF-(1,26421)  9.91166800E-07                    1_GWF-(1,10651)
        384          8         34  1.88543641E-05                    1_GWF-(1,26420) -8.58053872E-07                    1_GWF-(1,10653)
        385          8         35 -1.83124233E-05                    1_GWF-(1,11369)  1.09485623E-06                    1_GWF-(1,10653)
        386          8         36 -1.67650755E-05                    1_GWF-(1,11378)  7.87364661E-07                    1_GWF-(1,10654)
        387          8         37 -1.59647290E-05                    1_GWF-(1,26217)  8.91117357E-07                    1_GWF-(1,10653)
        388          8         38  1.89323473E-05                    1_GWF-(1,11451)  1.08521992E-06                     1_GWF-(1,9691)
        389          8         39  1.53500493E-05                    1_GWF-(1,11368)  1.03757233E-06                     1_GWF-(1,9692)
        390          8         40  1.40040164E-05                    1_GWF-(1,11378)  1.61888201E-06                     1_GWF-(1,9691)
        391          8         41 -1.45117012E-05                    1_GWF-(1,11378) -1.70415435E-06                     1_GWF-(1,9691)
        392          8         42 -1.43349807E-05                    1_GWF-(1,26588)  2.26196857E-06                     1_GWF-(1,9691)
        393          8         43 -1.37724490E-05                    1_GWF-(1,26543) -2.01529333E-06                     1_GWF-(1,9691)
        394          8         44  1.58991846E-05                    1_GWF-(1,26486)  1.29653351E-06                     1_GWF-(1,9691)
        395          8         45  1.75579448E-05                    1_GWF-(1,26487)  4.16115927E-07                     1_GWF-(1,9691)
        396          8         46  1.52314884E-05                    1_GWF-(1,26486) -1.40172990E-06                     1_GWF-(1,9691)
        397          8         47 -1.48759417E-05                    1_GWF-(1,11454)  2.54793748E-06                     1_GWF-(1,9691)
        398          8         48 -1.76291941E-05                    1_GWF-(1,11373) -2.88542629E-06                     1_GWF-(1,9691)
        399          8         49  1.60543394E-05                    1_GWF-(1,11369)  3.12082545E-06                     1_GWF-(1,9691)
        400          8         50  2.84244605E-05                    1_GWF-(1,11378) -3.25302560E-06                     1_GWF-(1,9691)
        401          9          1 -1.93794448E-05                    1_GWF-(1,11378)  4.70286433E-06                     1_GWF-(1,9691)
        402          9          2 -1.13546588E-05                    1_GWF-(1,11378) -3.06201154E-06                     1_GWF-(1,9691)
        403          9          3  1.64029074E-05                    1_GWF-(1,11378)  9.47473932E-07                     1_GWF-(1,9691)
        404          9          4 -1.78654732E-05                    1_GWF-(1,26649)  1.58696128E-06                     1_GWF-(1,9691)
        405          9          5 -1.71296991E-05                    1_GWF-(1,26622) -2.24662519E-06                     1_GWF-(1,9691)
        406          9          6  1.06509389E-05                    1_GWF-(1,26622)  2.21447349E-06                     1_GWF-(1,9691)
        407          9          7 -7.47835921E-06                    1_GWF-(1,23325) -1.92758209E-06                     1_GWF-(1,9691)
        408          9          8 -9.29160140E-06                     1_GWF-(1,8100)  1.76637280E-06                     1_GWF-(1,9691)
        409          9          9  9.96408708E-06                    1_GWF-(1,26588) -1.15368956E-06                     1_GWF-(1,9691)
        410          9         10  1.10530515E-05                    1_GWF-(1,26543)  5.43142156E-07                     1_GWF-(1,9691)
        411          9         11  1.33604035E-05                    1_GWF-(1,26487)  4.40962608E-07                     1_GWF-(1,9691)
        412          9         12  1.44173408E-05                    1_GWF-(1,26486)  7.79219105E-07                     1_GWF-(1,9692)
        413          9         13  1.03085667E-05                    1_GWF-(1,26487)  9.72366051E-07                     1_GWF-(1,9691)
        414          9         14  6.80663967E-06                    1_GWF-(1,26486) -5.88106353E-07                     1_GWF-(1,9691)
        415          9         15  5.35654674E-06                    1_GWF-(1,26487)  5.26700234E-07                     1_GWF-(1,9691)
        416          9         16 -6.74532000E-06                    1_GWF-(1,26665)  2.89290132E-07                     1_GWF-(1,9692)
        417          9         17 -8.28414153E-06                    1_GWF-(1,26666)  2.01354608E-07                    1_GWF-(1,10652)
        418          9         18 -1.14221083E-05                    1_GWF-(1,26665)  2.29168655E-07                     1_GWF-(1,9691)
        419          9         19  1.14690096E-05                    1_GWF-(1,26665)  3.09320051E-07                     1_GWF-(1,9692)
        420          9         20 -8.43264686E-06                    1_GWF-(1,26487)  4.16770929E-07                     1_GWF-(1,9691)
        421          9         21 -8.67357349E-06                    1_GWF-(1,26420) -2.91422540E-07                    1_GWF-(1,10654)
        422          9         22 -6.68209125E-06                    1_GWF-(1,26421) -2.99134366E-07                    1_GWF-(1,10651)
        423          9         23 -6.40746036E-06                    1_GWF-(1,26588) -1.78977504E-07                    1_GWF-(1,10632)
        424          9         24  7.43842840E-06                    1_GWF-(1,26420) -1.08873071E-07                    1_GWF-(1,10656)
        425          9         25 -8.44751610E-06                    1_GWF-(1,26665)  1.74785872E-07                     1_GWF-(1,9691)
        426          9         26 -6.45038687E-06                    1_GWF-(1,26666) -1.73721327E-07                    1_GWF-(1,10652)
        427          9         27  4.63678985E-06                    1_GWF-(1,26217) -2.17818637E-07                    1_GWF-(1,10653)
        428          9         28  4.38451078E-06                    1_GWF-(1,26218)  2.21035012E-07                    1_GWF-(1,10651)
        429          9         29  3.72574627E-06                    1_GWF-(1,25507) -1.99023299E-07                    1_GWF-(1,10653)
        430          9         30  4.08728024E-06                    1_GWF-(1,26588)  1.57316910E-07                     1_GWF-(1,9690)
        431          9         31  4.61529614E-06                    1_GWF-(1,26589)  1.10663438E-07                     1_GWF-(1,9669)
        432          9         32  4.87441538E-06                    1_GWF-(1,26588)  9.03086259E-08                     1_GWF-(1,9691)
        433          9         33  4.85203713E-06                    1_GWF-(1,26420)  8.52588148E-08                    1_GWF-(1,11041)
        434          9         34  6.04730475E-06                    1_GWF-(1,26422)  1.03084594E-07                    1_GWF-(1,10654)
        435          9         35  6.29802760E-06                    1_GWF-(1,26420)  8.89066812E-08                    1_GWF-(1,10653)
        436          9         36 -5.70229768E-06                    1_GWF-(1,26486)  6.60817239E-08                    1_GWF-(1,11197)
        437          9         37  5.94322791E-06                    1_GWF-(1,26486) -9.42637681E-08                    1_GWF-(1,10651)
        438          9         38 -6.42431736E-06                    1_GWF-(1,26486)  1.27707889E-07                    1_GWF-(1,10653)
        439          9         39 -4.62864529E-06                    1_GWF-(1,26350) -1.58929553E-07                    1_GWF-(1,10653)
        440          9         40 -5.30702878E-06                    1_GWF-(1,26422)  1.14118185E-07                    1_GWF-(1,10653)
        441          9         41 -4.97930744E-06                    1_GWF-(1,26350)  9.69031222E-08                     1_GWF-(1,9691)
        442          9         42 -4.48583891E-06                    1_GWF-(1,26422)  7.09653709E-08                     1_GWF-(1,9692)
        443          9         43  5.63899894E-06                    1_GWF-(1,26622)  9.64517358E-08                    1_GWF-(1,10653)
        444          9         44  5.73816169E-06                    1_GWF-(1,26649)  7.86156543E-08                    1_GWF-(1,10658)
        445          9         45  4.49305164E-06                    1_GWF-(1,26622)  6.58010217E-08                    1_GWF-(1,10653)
        446          9         46 -2.51215525E-06                    1_GWF-(1,26622)  5.19888809E-08                    1_GWF-(1,10650)
        447          9         47  3.21741685E-06                    1_GWF-(1,26218) -5.21851664E-08                    1_GWF-(1,10653)
        448          9         48  3.18882170E-06                    1_GWF-(1,26217)  1.07106040E-07                    1_GWF-(1,10653)
        449          9         49  3.19262194E-06                    1_GWF-(1,26218)  1.26072421E-07                    1_GWF-(1,10654)
        450          9         50  2.59432576E-06                    1_GWF-(1,26217)  1.86914232E-07                    1_GWF-(1,10653)
        451         10          1 -3.12182700E-06                    1_GWF-(1,26217) -2.33078564E-07                    1_GWF-(1,10653)
        452         10          2 -3.65252395E-06                    1_GWF-(1,26218)  1.56449573E-07                    1_GWF-(1,10653)
        453         10          3 -3.03550176E-06                    1_GWF-(1,26422) -7.34015644E-08                    1_GWF-(1,10653)
        454         10          4 -2.76380584E-06                    1_GWF-(1,26350)  4.91251620E-08                    1_GWF-(1,10651)
        455         10          5  3.45045695E-06                    1_GWF-(1,26588)  5.49602813E-08                    1_GWF-(1,10653)
        456         10          6 -3.52692023E-06                    1_GWF-(1,26588)  8.50370468E-08                    1_GWF-(1,10654)
        457         10          7 -3.02417614E-06                    1_GWF-(1,26543)  1.04217102E-07                    1_GWF-(1,10653)
        458         10          8 -2.47566716E-06                    1_GWF-(1,26588)  5.05834631E-08                    1_GWF-(1,10629)
        459         10          9  2.33064584E-06                    1_GWF-(1,26422)  4.06112601E-08                    1_GWF-(1,11197)
        460         10         10  2.79490019E-06                    1_GWF-(1,26420)  4.81363523E-08                    1_GWF-(1,10653)
        461         10         11  3.04283270E-06                    1_GWF-(1,26487) -6.36292563E-08                    1_GWF-(1,10653)
        462         10         12  2.61770961E-06                    1_GWF-(1,26420)  3.56176484E-08                    1_GWF-(1,11197)
        463         10         13  2.28455709E-06                    1_GWF-(1,26487)  2.60391740E-08                    1_GWF-(1,11196)
        464         10         14  2.09966940E-06                    1_GWF-(1,26486) -6.76719333E-08                    1_GWF-(1,10653)
        465         10         15 -1.98764038E-06                    1_GWF-(1,26486) -4.26009563E-08                    1_GWF-(1,10654)
        466         10         16 -2.00511115E-06                    1_GWF-(1,26665) -3.37582136E-08                    1_GWF-(1,10650)
        467         10         17  2.07132564E-06                    1_GWF-(1,26665) -3.05753652E-08                    1_GWF-(1,11197)
        468         10         18 -2.05604534E-06                    1_GWF-(1,26665) -3.40418653E-08                    1_GWF-(1,10658)
        469         10         19 -1.54215983E-06                    1_GWF-(1,26589) -4.02021866E-08                    1_GWF-(1,10653)
        470         10         20 -1.94535213E-06                    1_GWF-(1,26588)  3.05040864E-08                    1_GWF-(1,10653)
        471         10         21 -2.12451025E-06                    1_GWF-(1,26622)  2.11625998E-08                    1_GWF-(1,11197)
        472         10         22 -2.04559430E-06                    1_GWF-(1,26623) -2.91791128E-08                    1_GWF-(1,10653)
        473         10         23 -1.68643608E-06                    1_GWF-(1,26622)  4.04818891E-08                    1_GWF-(1,10653)
        474         10         24  1.39080799E-06                    1_GWF-(1,26622) -4.65884333E-08                    1_GWF-(1,10653)
        475         10         25 -1.71314517E-06                    1_GWF-(1,26422) -3.24846435E-08                    1_GWF-(1,10652)
        476         10         26 -1.64737302E-06                    1_GWF-(1,26350) -2.91456939E-08                    1_GWF-(1,11197)
        477         10         27 -1.33128892E-06                    1_GWF-(1,26422)  2.37390755E-08                    1_GWF-(1,11197)
        478         10         28  1.03946976E-06                    1_GWF-(1,26486) -2.01947337E-08                    1_GWF-(1,10658)
        479         10         29  8.91484877E-07                    1_GWF-(1,26420) -3.15389119E-08                    1_GWF-(1,10651)
        480         11          1  7.88295132E-07                    1_GWF-(1,26421) -2.64287142E-08                    1_GWF-(1,10654)
 --------------------------------------------------------------------------------------------------------------------------------------


 UBDSV1 SAVING     FLOW-JA-FACE ON UNIT   1020 AT TIME STEP      1, STRESS PERIOD      1
 UBDSV06 SAVING       DATA-SPDIS IN MODEL ML               PACKAGE NPF             CONNECTED TO MODEL ML               PACKAGE NPF              ON UNIT   1020 AT TIME STEP      1, STRESS PERIOD      1
 UBDSV06 SAVING              WEL IN MODEL ML               PACKAGE ML              CONNECTED TO MODEL ML               PACKAGE WEL_0            ON UNIT   1020 AT TIME STEP      1, STRESS PERIOD      1
 UBDSV06 SAVING              DRN IN MODEL ML               PACKAGE ML              CONNECTED TO MODEL ML               PACKAGE DRN_0            ON UNIT   1020 AT TIME STEP      1, STRESS PERIOD      1
 UBDSV06 SAVING              RIV IN MODEL ML               PACKAGE ML              CONNECTED TO MODEL ML               PACKAGE RIV_0            ON UNIT   1020 AT TIME STEP      1, STRESS PERIOD      1
 UBDSV06 SAVING              GHB IN MODEL ML               PACKAGE ML              CONNECTED TO MODEL ML               PACKAGE GHB_0            ON UNIT   1020 AT TIME STEP      1, STRESS PERIOD      1
 UBDSV06 SAVING              RCH IN MODEL ML               PACKAGE ML              CONNECTED TO MODEL ML               PACKAGE RCHA_0           ON UNIT   1020 AT TIME STEP      1, STRESS PERIOD      1

 HEAD WILL BE SAVED ON UNIT 1021 AT END OF TIME STEP    1, STRESS PERIOD    1


  VOLUME BUDGET FOR ENTIRE MODEL AT END OF TIME STEP    1, STRESS PERIOD   1
  ---------------------------------------------------------------------------------------------------

     CUMULATIVE VOLUME      L**3       RATES FOR THIS TIME STEP      L**3/T          PACKAGE NAME    
     ------------------                 ------------------------                     ----------------

           IN:                                      IN:
           ---                                      ---
                 WEL =           0.0000                   WEL =           0.0000     WEL_0           
                 DRN =           0.0000                   DRN =           0.0000     DRN_0           
                 RIV =           9.1615                   RIV =           1.0179     RIV_0           
                 GHB =          14.4960                   GHB =           1.6107     GHB_0           
                 RCH =           4.4623                   RCH =           0.4958     RCHA_0          

            TOTAL IN =          28.1197              TOTAL IN =           3.1244

          OUT:                                     OUT:
          ----                                     ----
                 WEL =           1.4412                   WEL =           0.1601     WEL_0           
                 DRN =           1.5814                   DRN =           0.1757     DRN_0           
                 RIV =          24.7635                   RIV =           2.7515     RIV_0           
                 GHB =           0.3337                   GHB =       3.7079E-02     GHB_0           
                 RCH =           0.0000                   RCH =           0.0000     RCHA_0          

           TOTAL OUT =          28.1198             TOTAL OUT =           3.1244

            IN - OUT =      -1.8068E-05              IN - OUT =      -2.0075E-06

 PERCENT DISCREPANCY =          -0.00     PERCENT DISCREPANCY =          -0.00




         TIME SUMMARY AT END OF TIME STEP    1 IN STRESS PERIOD    1
                    SECONDS     MINUTES      HOURS       DAYS        YEARS
                    -----------------------------------------------------------
   TIME STEP LENGTH  9.0000     0.15000     2.50000E-03 1.04167E-04 2.85193E-07
 STRESS PERIOD TIME  9.0000     0.15000     2.50000E-03 1.04167E-04 2.85193E-07
         TOTAL TIME  9.0000     0.15000     2.50000E-03 1.04167E-04 2.85193E-07


end timestep

