                                   MODFLOW 6
                U.S. GEOLOGICAL SURVEY MODULAR HYDROLOGIC MODEL
                          GROUNDWATER FLOW MODEL (GWF)
                            VERSION 6.2.2 07/30/2021

   MODFLOW 6 compiled Jul 31 2021 14:22:53 with IFORT compiler (ver. 19.10.3)

This software has been approved for release by the U.S. Geological 
Survey (USGS). Although the software has been subjected to rigorous 
review, the USGS reserves the right to update the software as needed 
pursuant to further analysis and review. No warranty, expressed or 
implied, is made by the USGS or the U.S. Government as to the 
functionality of the software and related material nor shall the 
fact of release constitute any such warranty. Furthermore, the 
software is released on condition that neither the USGS nor the U.S. 
Government shall be held liable for any damages resulting from its 
authorized or unauthorized use. Also refer to the USGS Water 
Resources Software User Rights Notice for complete use, copyright, 
and distribution information.


System command used to initiate simulation:
mf6

MODFLOW was compiled using uniform precision.

Real Variables
  KIND: 8
  TINY (smallest non-zero value):    2.225074-308
  HUGE (largest value):    1.797693+308
  PRECISION: 15
  BIT SIZE: 64

Integer Variables
  KIND: 4
  HUGE (largest value): 2147483647
  BIT SIZE: 32

Long Integer Variables
  KIND: 8
  HUGE (largest value): 9223372036854775807
  BIT SIZE: 64

Logical Variables
  KIND: 4
  BIT SIZE: 32
 

 OPENED ./ml.disv
 FILE TYPE:DISV6                  UNIT 1005   STATUS:OLD                 
 FORMAT:FORMATTED              ACCESS:SEQUENTIAL          
 ACTION:READ                


 OPENED ./ml.ic
 FILE TYPE:IC6                    UNIT 1006   STATUS:OLD                 
 FORMAT:FORMATTED              ACCESS:SEQUENTIAL          
 ACTION:READ                


 OPENED ./ml.npf
 FILE TYPE:NPF6                   UNIT 1007   STATUS:OLD                 
 FORMAT:FORMATTED              ACCESS:SEQUENTIAL          
 ACTION:READ                


 OPENED ./ml.ghb
 FILE TYPE:GHB6                   UNIT 1008   STATUS:OLD                 
 FORMAT:FORMATTED              ACCESS:SEQUENTIAL          
 ACTION:READ                


 OPENED ./ml.rcha
 FILE TYPE:RCH6                   UNIT 1009   STATUS:OLD                 
 FORMAT:FORMATTED              ACCESS:SEQUENTIAL          
 ACTION:READ                


 OPENED ./ml.obs
 FILE TYPE:OBS6                   UNIT 1010   STATUS:OLD                 
 FORMAT:FORMATTED              ACCESS:SEQUENTIAL          
 ACTION:READ                


 OPENED ./ml.oc
 FILE TYPE:OC6                    UNIT 1011   STATUS:OLD                 
 FORMAT:FORMATTED              ACCESS:SEQUENTIAL          
 ACTION:READ                


 OPENED ml.wel
 FILE TYPE:WEL6                   UNIT 1012   STATUS:OLD                 
 FORMAT:FORMATTED              ACCESS:SEQUENTIAL          
 ACTION:READ                


 OPENED ml.drn
 FILE TYPE:DRN6                   UNIT 1013   STATUS:OLD                 
 FORMAT:FORMATTED              ACCESS:SEQUENTIAL          
 ACTION:READ                


 OPENED ml.riv
 FILE TYPE:RIV6                   UNIT 1014   STATUS:OLD                 
 FORMAT:FORMATTED              ACCESS:SEQUENTIAL          
 ACTION:READ                


 DISV -- VERTEX GRID DISCRETIZATION PACKAGE, VERSION 1 : 12/23/2015 - INPUT READ FROM UNIT 1005


 # File generated by Flopy version 3.3.5 on 04/28/2022 at 15:59:32.

 PROCESSING DISCRETIZATION OPTIONS
    MODEL LENGTH UNIT IS METERS
    XORIGIN SPECIFIED AS     405575.681000000    
    YORIGIN SPECIFIED AS     6423306.54000000    
 END OF DISCRETIZATION OPTIONS

 PROCESSING DISCRETIZATION DIMENSIONS
   NLAY = 1
   NCPL = 26674
   NVERT = 27090
 END OF DISCRETIZATION DIMENSIONS

 PROCESSING GRIDDATA
 END PROCESSING GRIDDATA

 PROCESSING VERTICES
   SUCCESSFULLY READ 27090 (X,Y) COORDINATES
   MINIMUM X COORDINATE =     405575.681000000    
   MAXIMUM X COORDINATE =     413975.681000000    
   MINIMUM Y COORDINATE =     6423306.54000000    
   MAXIMUM Y COORDINATE =     6432506.54000000    
 END PROCESSING VERTICES

 PROCESSING CELL2D
   SUCCESSFULLY READ 26674 CELL2D INFORMATION ENTRIES
   MINIMUM X CELL CENTER =     405675.681000000    
   MAXIMUM X CELL CENTER =     413875.681000000    
   MINIMUM Y CELL CENTER =     6423406.54000000    
   MAXIMUM Y CELL CENTER =     6432406.54000000    
   MAXIMUM NUMBER OF CELL2D VERTICES IS 6 FOR CELL 208
 END PROCESSING VERTICES

 NPF -- NODE PROPERTY FLOW PACKAGE, VERSION 1, 3/30/2015 INPUT READ FROM UNIT 1007


 # File generated by Flopy version 3.3.5 on 04/28/2022 at 15:59:34.
 PROCESSING NPF OPTIONS
    CELL-BY-CELL FLOW INFORMATION WILL BE SAVED TO BINARY FILE WHENEVER ICBCFL IS NOT ZERO.
    SPECIFIC DISCHARGE WILL BE CALCULATED AT CELL CENTERS AND WRITTEN TO DATA-SPDIS IN BUDGET FILE WHEN REQUESTED.
 END OF NPF OPTIONS

 WEL   -- WEL PACKAGE, VERSION 8, 2/22/2014 INPUT READ FROM UNIT 1012
 # File generated by Flopy version 3.3.5 on 04/28/2022 at 15:59:35.

 PROCESSING WEL OPTIONS
    WEL BOUNDARIES HAVE NAMES IN LAST COLUMN.
    FLOWS WILL BE SAVED TO BUDGET FILE SPECIFIED IN OUTPUT CONTROL
 END OF WEL OPTIONS

 PROCESSING WEL DIMENSIONS
    MAXBOUND =       9
 END OF WEL DIMENSIONS

 DRN   -- DRN PACKAGE, VERSION 8, 2/22/2014 INPUT READ FROM UNIT 1013
 # File generated by Flopy version 3.3.5 on 04/28/2022 at 15:59:35.

 PROCESSING DRN OPTIONS
    DRN BOUNDARIES HAVE NAMES IN LAST COLUMN.
    FLOWS WILL BE SAVED TO BUDGET FILE SPECIFIED IN OUTPUT CONTROL

 OPENED ml.drn.obs
 FILE TYPE:OBS   UNIT 1016   STATUS:OLD                 
 FORMAT:FORMATTED              ACCESS:SEQUENTIAL          
 ACTION:READ                

 END OF DRN OPTIONS

 PROCESSING DRN DIMENSIONS
    MAXBOUND =     133
 END OF DRN DIMENSIONS

 RIV   -- RIV PACKAGE, VERSION 8, 2/22/2014 INPUT READ FROM UNIT 1014
 # File generated by Flopy version 3.3.5 on 04/28/2022 at 15:59:35.

 PROCESSING RIV OPTIONS
    AUXILIARY RIV VARIABLE: FID             
    RIV BOUNDARIES HAVE NAMES IN LAST COLUMN.
    FLOWS WILL BE SAVED TO BUDGET FILE SPECIFIED IN OUTPUT CONTROL
 END OF RIV OPTIONS

 PROCESSING RIV DIMENSIONS
    MAXBOUND =     794
 END OF RIV DIMENSIONS

 GHB   -- GHB PACKAGE, VERSION 8, 2/22/2014 INPUT READ FROM UNIT 1008
 # File generated by Flopy version 3.3.5 on 04/28/2022 at 15:59:34.

 PROCESSING GHB OPTIONS
    GHB BOUNDARIES HAVE NAMES IN LAST COLUMN.
    FLOWS WILL BE SAVED TO BUDGET FILE SPECIFIED IN OUTPUT CONTROL
 END OF GHB OPTIONS

 PROCESSING GHB DIMENSIONS
    MAXBOUND =     153
 END OF GHB DIMENSIONS

 RCH   -- RCH PACKAGE, VERSION 8, 2/22/2014 INPUT READ FROM UNIT 1009
 # File generated by Flopy version 3.3.5 on 04/28/2022 at 15:59:34.

 PROCESSING RCH OPTIONS
    RECHARGE INPUT WILL BE READ AS ARRAY(S).
    FLOWS WILL BE SAVED TO BUDGET FILE SPECIFIED IN OUTPUT CONTROL
 END OF RCH OPTIONS

 IC -- INITIAL CONDITIONS PACKAGE, VERSION 8, 3/28/2015 INPUT READ FROM UNIT 1006
 # File generated by Flopy version 3.3.5 on 04/28/2022 at 15:59:34.
 PROCESSING GRIDDATA

     INITIAL HEAD =   15.00000    
 END PROCESSING GRIDDATA
 PROCESSING GRIDDATA

                ICELLTYPE = 0

 OPENED ../com_ext/k.txt
 FILE TYPE:OPEN/CLOSE   UNIT 1017   STATUS:OLD                 
 FORMAT:FORMATTED              ACCESS:SEQUENTIAL          
 ACTION:READ                

 K33 not provided.  Assuming K33 = K.
 K22 not provided.  Assuming K22 = K.
 END PROCESSING GRIDDATA

The observation utility is active for "ML"
 # File generated by Flopy version 3.3.5 on 04/28/2022 at 15:59:35.

Processing observation options:

Text output number of digits of precision set to: 10
The PRINT_INPUT option has been specified.


 OBSERVATIONS READ FROM FILE "ml.obs"
 ----------------------------------------------------------------------------------------------------------------------------------------------------------------------------------------------------------------------------
 NAME                                     TYPE                                       TIME         LOCATION DATA                              OUTPUT FILENAME                                                                 
 ----------------------------------------------------------------------------------------------------------------------------------------------------------------------------------------------------------------------------
 PRG                                      CONTINUOUS  HEAD                           ALL TIMES    "1 16523"                                  sim/hds.csv                                                                     
 P8                                       CONTINUOUS  HEAD                           ALL TIMES    "1 10323"                                  sim/hds.csv                                                                     
 P24                                      CONTINUOUS  HEAD                           ALL TIMES    "1 9594"                                   sim/hds.csv                                                                     
 P25                                      CONTINUOUS  HEAD                           ALL TIMES    "1 13966"                                  sim/hds.csv                                                                     
 P32                                      CONTINUOUS  HEAD                           ALL TIMES    "1 15787"                                  sim/hds.csv                                                                     
 P33                                      CONTINUOUS  HEAD                           ALL TIMES    "1 15825"                                  sim/hds.csv                                                                     
 PF                                       CONTINUOUS  HEAD                           ALL TIMES    "1 21048"                                  sim/hds.csv                                                                     
 PH                                       CONTINUOUS  HEAD                           ALL TIMES    "1 20781"                                  sim/hds.csv                                                                     
 PZHM1                                    CONTINUOUS  HEAD                           ALL TIMES    "1 14521"                                  sim/hds.csv                                                                     
 P26                                      CONTINUOUS  HEAD                           ALL TIMES    "1 13141"                                  sim/hds.csv                                                                     
 P27                                      CONTINUOUS  HEAD                           ALL TIMES    "1 8465"                                   sim/hds.csv                                                                     
 P28                                      CONTINUOUS  HEAD                           ALL TIMES    "1 8924"                                   sim/hds.csv                                                                     
 P29                                      CONTINUOUS  HEAD                           ALL TIMES    "1 4524"                                   sim/hds.csv                                                                     
 P30                                      CONTINUOUS  HEAD                           ALL TIMES    "1 5255"                                   sim/hds.csv                                                                     
 R20                                      CONTINUOUS  HEAD                           ALL TIMES    "1 10676"                                  sim/hds.csv                                                                     
 R21                                      CONTINUOUS  HEAD                           ALL TIMES    "1 10403"                                  sim/hds.csv                                                                     
 P34                                      CONTINUOUS  HEAD                           ALL TIMES    "1 15131"                                  sim/hds.csv                                                                     
 P37                                      CONTINUOUS  HEAD                           ALL TIMES    "1 15755"                                  sim/hds.csv                                                                     
 P38                                      CONTINUOUS  HEAD                           ALL TIMES    "1 15045"                                  sim/hds.csv                                                                     
 P39                                      CONTINUOUS  HEAD                           ALL TIMES    "1 9637"                                   sim/hds.csv                                                                     
 P40                                      CONTINUOUS  HEAD                           ALL TIMES    "1 9312"                                   sim/hds.csv                                                                     
 AP1                                      CONTINUOUS  HEAD                           ALL TIMES    "1 9702"                                   sim/hds.csv                                                                     
 RCK1                                     CONTINUOUS  HEAD                           ALL TIMES    "1 15900"                                  sim/hds.csv                                                                     
 RCK2                                     CONTINUOUS  HEAD                           ALL TIMES    "1 15199"                                  sim/hds.csv                                                                     
 P23                                      CONTINUOUS  HEAD                           ALL TIMES    "1 6409"                                   sim/hds.csv                                                                     
 ----------------------------------------------------------------------------------------------------------------------------------------------------------------------------------------------------------------------------


    BINARY GRID INFORMATION WILL BE WRITTEN TO:
      UNIT NUMBER: 1019
      FILE NAME: /srv/common/ptrack/case_study/pst/ml_09/./ml.disv.grb

 OPENED /srv/common/ptrack/case_study/pst/ml_09/./ml.disv.grb
 FILE TYPE:DATA(BINARY)   UNIT 1019   STATUS:REPLACE             
 FORMAT:UNFORMATTED            ACCESS:STREAM              
 ACTION:READWRITE           

      THE LAST TIME STEP WILL BE PRINTED
      THE LAST TIME STEP WILL BE PRINTED
 # File generated by Flopy version 3.3.5 on 04/28/2022 at 15:59:35.

 PROCESSING OC OPTIONS

    BUDGET INFORMATION WILL BE WRITTEN TO:
      UNIT NUMBER: 1020
      FILE NAME: ml.cbc

 OPENED ml.cbc
 FILE TYPE:DATA(BINARY)   UNIT 1020   STATUS:REPLACE             
 FORMAT:UNFORMATTED            ACCESS:STREAM              
 ACTION:READWRITE           

    HEAD INFORMATION WILL BE WRITTEN TO:
      UNIT NUMBER: 1021
      FILE NAME: ml.hds

 OPENED ml.hds
 FILE TYPE:DATA(BINARY)   UNIT 1021   STATUS:REPLACE             
 FORMAT:UNFORMATTED            ACCESS:STREAM              
 ACTION:READWRITE           

 END OF OC OPTIONS

The observation utility is active for "DRN_0"
 # File generated by Flopy version 3.3.5 on 04/28/2022 at 15:59:35.

Processing observation options:



start timestep kper="1" kstp="1" mode="normal"


 BEGIN READING OUTPUT CONTROL FOR STRESS PERIOD 1
      THE LAST TIME STEP WILL BE SAVED
      THE LAST TIME STEP WILL BE SAVED

 END READING OUTPUT CONTROL FOR STRESS PERIOD 1

 OPENED ext/wel_spd_1.txt
 FILE TYPE:OPEN/CLOSE   UNIT 1023   STATUS:OLD                 
 FORMAT:FORMATTED              ACCESS:SEQUENTIAL          
 ACTION:READ                


 OPENED ext/drn_spd_1.txt
 FILE TYPE:OPEN/CLOSE   UNIT 1024   STATUS:OLD                 
 FORMAT:FORMATTED              ACCESS:SEQUENTIAL          
 ACTION:READ                


 OPENED ext/riv_spd_1.txt
 FILE TYPE:OPEN/CLOSE   UNIT 1025   STATUS:OLD                 
 FORMAT:FORMATTED              ACCESS:SEQUENTIAL          
 ACTION:READ                


 OPENED ../com_ext/ghb_spd_1.txt
 FILE TYPE:OPEN/CLOSE   UNIT 1026   STATUS:OLD                 
 FORMAT:FORMATTED              ACCESS:SEQUENTIAL          
 ACTION:READ                


 OPENED ../com_ext/rech_spd_1.txt
 FILE TYPE:OPEN/CLOSE   UNIT 1027   STATUS:OLD                 
 FORMAT:FORMATTED              ACCESS:SEQUENTIAL          
 ACTION:READ                


 SLN_1 INNER ITERATION SUMMARY
 --------------------------------------------------------------------------------------------------------------------------------------
      TOTAL      OUTER      INNER                                                            MAXIMUM                                   
  ITERATION  ITERATION  ITERATION  MAXIMUM CHANGE      MAXIMUM CHANGE MODEL-(CELLID)        RESIDUAL    MAXIMUM RESIDUAL MODEL-(CELLID)
 --------------------------------------------------------------------------------------------------------------------------------------
          1          1          1      -11.826333                    1_GWF-(1,12785)      0.66548440                    1_GWF-(1,11179)
          2          1          2       7.9451308                    1_GWF-(1,26564)     -0.36512937                    1_GWF-(1,11175)
          3          1          3       8.5828686                    1_GWF-(1,26565)     -0.32912353                    1_GWF-(1,11178)
          4          1          4       8.3172329                    1_GWF-(1,26564)      0.32136332                    1_GWF-(1,11180)
          5          1          5       8.5449277                    1_GWF-(1,26611)      0.29388054                    1_GWF-(1,11157)
          6          1          6       9.1932307                    1_GWF-(1,26649)      0.22740631                    1_GWF-(1,11158)
          7          1          7       9.2851514                    1_GWF-(1,26622)     -0.25768814                    1_GWF-(1,11208)
          8          1          8       7.4154307                    1_GWF-(1,26665)      0.14912600                    1_GWF-(1,10961)
          9          1          9      -5.6900425                    1_GWF-(1,26665)      0.15044654                    1_GWF-(1,11158)
         10          1         10      -5.6659108                    1_GWF-(1,26666)      0.15580921                    1_GWF-(1,11207)
         11          1         11      -5.3165879                    1_GWF-(1,26665)     -0.14565117                    1_GWF-(1,11207)
         12          1         12      -5.1000588                    1_GWF-(1,26622)      0.10897811                    1_GWF-(1,11059)
         13          1         13      -6.0080139                    1_GWF-(1,26649)  9.18817333E-02                    1_GWF-(1,11052)
         14          1         14      -4.8987774                    1_GWF-(1,26622)  8.47565759E-02                    1_GWF-(1,11050)
         15          1         15      -3.9033195                    1_GWF-(1,26623)  8.27665663E-02                    1_GWF-(1,11017)
         16          1         16      -3.0428090                    1_GWF-(1,26622)  8.17283457E-02                    1_GWF-(1,11058)
         17          1         17      -3.5725211                    1_GWF-(1,26588)      0.10981621                    1_GWF-(1,10873)
         18          1         18      -4.6596793                    1_GWF-(1,26543)     -0.10137488                    1_GWF-(1,11152)
         19          1         19      -6.1575441                    1_GWF-(1,26588)  8.52017392E-02                    1_GWF-(1,11194)
         20          1         20      -4.9853338                    1_GWF-(1,26543)  8.79259520E-02                    1_GWF-(1,11151)
         21          1         21      -3.5781404                    1_GWF-(1,26544) -8.20296461E-02                    1_GWF-(1,11152)
         22          1         22      -3.8738860                    1_GWF-(1,26486) -8.93442051E-02                    1_GWF-(1,11151)
         23          1         23      -3.7375508                    1_GWF-(1,26487)  7.63094576E-02                    1_GWF-(1,11151)
         24          1         24       3.5208930                    1_GWF-(1,26487)  6.63108623E-02                    1_GWF-(1,11108)
         25          1         25       4.6316907                    1_GWF-(1,26420) -6.71015507E-02                    1_GWF-(1,11151)
         26          1         26       4.8510876                    1_GWF-(1,26487) -7.95568470E-02                    1_GWF-(1,11108)
         27          1         27       4.0658958                    1_GWF-(1,26420)  6.59777113E-02                    1_GWF-(1,11108)
         28          1         28       2.9516351                    1_GWF-(1,26487) -5.91736069E-02                    1_GWF-(1,11149)
         29          1         29       2.2270644                    1_GWF-(1,26542) -5.72392290E-02                    1_GWF-(1,11150)
         30          1         30       1.8600771                    1_GWF-(1,26623) -5.90693609E-02                    1_GWF-(1,11063)
         31          1         31       1.9988930                    1_GWF-(1,26586)  5.04353554E-02                    1_GWF-(1,11158)
         32          1         32       1.7447155                    1_GWF-(1,26422) -4.83240801E-02                    1_GWF-(1,11053)
         33          1         33      -1.9927457                    1_GWF-(1,26422) -5.17061320E-02                    1_GWF-(1,11155)
         34          1         34      -2.0399371                    1_GWF-(1,26350) -4.56111595E-02                    1_GWF-(1,11154)
         35          1         35      -2.0882307                    1_GWF-(1,26422)  4.89860248E-02                    1_GWF-(1,11154)
         36          1         36      -1.9118516                    1_GWF-(1,26350) -4.95834084E-02                    1_GWF-(1,11153)
         37          1         37      -1.7312985                    1_GWF-(1,26422)  4.89131431E-02                    1_GWF-(1,11064)
         38          1         38      -1.5854671                    1_GWF-(1,26648)  5.66416293E-02                    1_GWF-(1,11063)
         39          1         39      -1.5157274                    1_GWF-(1,26649)  4.33358029E-02                    1_GWF-(1,11150)
         40          1         40      -1.4887602                    1_GWF-(1,26623)  3.30700221E-02                    1_GWF-(1,11110)
         41          1         41      -1.3046609                    1_GWF-(1,26649) -3.43487399E-02                    1_GWF-(1,11150)
         42          1         42      -1.1589523                    1_GWF-(1,26623)  3.87032691E-02                    1_GWF-(1,11150)
         43          1         43     -0.98742298                    1_GWF-(1,21484) -3.99635700E-02                    1_GWF-(1,11151)
         44          1         44     -0.98812574                    1_GWF-(1,21412) -4.20407808E-02                    1_GWF-(1,11108)
         45          1         45      -1.2532461                    1_GWF-(1,21259) -3.01496880E-02                    1_GWF-(1,11061)
         46          1         46      -1.1640097                    1_GWF-(1,20925)  3.31279155E-02                    1_GWF-(1,14801)
         47          1         47      -1.2226816                    1_GWF-(1,20919) -4.35816246E-02                    1_GWF-(1,14801)
         48          1         48     -0.91343648                    1_GWF-(1,20918)  5.49078701E-02                    1_GWF-(1,14801)
         49          1         49     -0.67993503                    1_GWF-(1,26217) -5.89445510E-02                    1_GWF-(1,14801)
         50          1         50     -0.62150475                    1_GWF-(1,26218)  7.79941662E-02                    1_GWF-(1,14801)
         51          2          1      -37.275500                    1_GWF-(1,26519)     -0.16595958                    1_GWF-(1,26519)
         52          2          2      -13.917293                    1_GWF-(1,26607) -6.38848023E-02                    1_GWF-(1,26516)
         53          2          3      -7.2026289                    1_GWF-(1,26637)  4.30220850E-02                    1_GWF-(1,26516)
         54          2          4      -7.0913948                    1_GWF-(1,26665)  4.90196949E-02                    1_GWF-(1,14801)
         55          2          5      -4.6176735                    1_GWF-(1,26649) -4.74076965E-02                    1_GWF-(1,14801)
         56          2          6      -3.5268283                    1_GWF-(1,26589)  6.37377053E-02                    1_GWF-(1,14801)
         57          2          7      -3.0092927                    1_GWF-(1,26543) -7.13917046E-02                    1_GWF-(1,14801)
         58          2          8      -2.6446706                    1_GWF-(1,26544)      0.11076897                    1_GWF-(1,14801)
         59          2          9      -1.9239169                    1_GWF-(1,26487) -9.51030352E-02                    1_GWF-(1,14801)
         60          2         10      -1.5948052                    1_GWF-(1,26421)  8.70916417E-02                    1_GWF-(1,14801)
         61          2         11      -1.4871697                    1_GWF-(1,26422)  1.54811674E-02                    1_GWF-(1,14800)
         62          2         12      -1.1842627                    1_GWF-(1,26217)  3.30188081E-02                    1_GWF-(1,14800)
         63          2         13     -0.90817728                    1_GWF-(1,26218)  6.42771068E-02                    1_GWF-(1,14801)
         64          2         14     -0.57737274                    1_GWF-(1,26649) -6.42565182E-02                    1_GWF-(1,14801)
         65          2         15     -0.62857255                    1_GWF-(1,26622)  5.91579687E-02                    1_GWF-(1,14801)
         66          2         16     -0.81844570                    1_GWF-(1,25775)  1.57152042E-02                    1_GWF-(1,14801)
         67          2         17      0.88803514                    1_GWF-(1,26350)  6.30813504E-02                    1_GWF-(1,14800)
         68          2         18      0.88780412                    1_GWF-(1,26217)  8.86119049E-02                    1_GWF-(1,14801)
         69          2         19      0.65978784                    1_GWF-(1,26218)  6.58378310E-02                    1_GWF-(1,14800)
         70          2         20      0.47411437                    1_GWF-(1,26543)  5.10715406E-02                    1_GWF-(1,14801)
         71          2         21      0.70616886                    1_GWF-(1,26588)  1.01704622E-02                    1_GWF-(1,14801)
         72          2         22      0.74722295                    1_GWF-(1,26543)  4.62511566E-02                    1_GWF-(1,14800)
         73          2         23      0.45075936                    1_GWF-(1,26544)  8.16564317E-02                    1_GWF-(1,14801)
         74          2         24     -0.50571424                    1_GWF-(1,26422)  7.25942073E-02                    1_GWF-(1,14800)
         75          2         25     -0.70096715                    1_GWF-(1,26486)  6.18293647E-02                    1_GWF-(1,14801)
         76          2         26     -0.75523403                    1_GWF-(1,26487)  1.14166177E-02                    1_GWF-(1,14800)
         77          2         27     -0.50411022                    1_GWF-(1,26420)  3.86799972E-02                    1_GWF-(1,14800)
         78          2         28     -0.27056486                    1_GWF-(1,26543)  6.81994357E-02                    1_GWF-(1,14801)
         79          2         29      0.28307534                    1_GWF-(1,26487)  6.66151647E-02                    1_GWF-(1,14800)
         80          2         30      0.28534413                    1_GWF-(1,26420)  8.85590971E-02                    1_GWF-(1,14801)
         81          2         31      0.23315177                    1_GWF-(1,25268) -8.03773170E-02                    1_GWF-(1,14801)
         82          2         32      0.25999995                    1_GWF-(1,26218)  8.84635611E-02                    1_GWF-(1,14801)
         83          2         33      0.27471428                    1_GWF-(1,26217) -6.07272408E-02                    1_GWF-(1,14801)
         84          2         34     -0.20925407                    1_GWF-(1,26217)  4.83248819E-02                    1_GWF-(1,14801)
         85          2         35      0.18802937                    1_GWF-(1,26422)  3.04969838E-02                    1_GWF-(1,14800)
         86          2         36      0.18608132                    1_GWF-(1,26218)  2.56198796E-02                    1_GWF-(1,14801)
         87          2         37     -0.20437098                    1_GWF-(1,21290)  1.63787518E-02                    1_GWF-(1,14800)
         88          2         38     -0.20697953                    1_GWF-(1,21282)  1.37375736E-02                    1_GWF-(1,14801)
         89          2         39     -0.19291521                    1_GWF-(1,20937)  7.59270698E-03                    1_GWF-(1,14800)
         90          2         40     -0.18927833                    1_GWF-(1,20915)  5.10680733E-03                    1_GWF-(1,14801)
         91          2         41     -0.15136529                    1_GWF-(1,20908)  7.36551300E-03                    1_GWF-(1,14801)
         92          2         42      0.16059300                    1_GWF-(1,21364)  9.42665545E-03                    1_GWF-(1,14800)
         93          2         43     -0.19474468                    1_GWF-(1,26350)  1.28016309E-02                    1_GWF-(1,14801)
         94          2         44      0.21013415                    1_GWF-(1,21283)  1.23165916E-02                    1_GWF-(1,14800)
         95          2         45      0.20074702                    1_GWF-(1,21265)  1.50213551E-02                    1_GWF-(1,14801)
         96          2         46      0.17912643                    1_GWF-(1,20917)  1.15759612E-02                    1_GWF-(1,14800)
         97          2         47      0.13657560                    1_GWF-(1,20232)  1.05949749E-02                    1_GWF-(1,14801)
         98          2         48 -9.52059668E-02                    1_GWF-(1,26422)  6.96404578E-03                    1_GWF-(1,14800)
         99          2         49 -8.92236815E-02                    1_GWF-(1,26586)  6.66018602E-03                    1_GWF-(1,14801)
        100          2         50 -7.54809199E-02                    1_GWF-(1,20584)  5.00007028E-03                    1_GWF-(1,15939)
        101          3          1     -0.13117879                    1_GWF-(1,11442) -5.35155970E-03                    1_GWF-(1,11378)
        102          3          2     -0.13054554                    1_GWF-(1,11437)  5.47348340E-03                    1_GWF-(1,14800)
        103          3          3  6.93299018E-02                    1_GWF-(1,26623)  7.10642149E-03                    1_GWF-(1,14801)
        104          3          4  6.41816362E-02                    1_GWF-(1,26649)  5.83128708E-03                    1_GWF-(1,14800)
        105          3          5 -7.86888046E-02                    1_GWF-(1,21260)  7.36378649E-03                    1_GWF-(1,14801)
        106          3          6 -6.38853364E-02                    1_GWF-(1,26422)  6.74577836E-03                    1_GWF-(1,14800)
        107          3          7 -6.32298259E-02                    1_GWF-(1,26350)  6.67927669E-03                    1_GWF-(1,14801)
        108          3          8 -7.34885394E-02                    1_GWF-(1,26422)  5.07917847E-03                    1_GWF-(1,14800)
        109          3          9 -7.58354021E-02                    1_GWF-(1,26350)  5.89810059E-03                    1_GWF-(1,14801)
        110          3         10  7.09223152E-02                    1_GWF-(1,20224)  4.06338359E-03                    1_GWF-(1,14800)
        111          3         11  6.51261941E-02                    1_GWF-(1,26422)  3.29731065E-03                    1_GWF-(1,15939)
        112          3         12 -4.95594579E-02                    1_GWF-(1,26422) -2.65809672E-03                    1_GWF-(1,15939)
        113          3         13  4.90056948E-02                    1_GWF-(1,21332) -1.65293445E-03                    1_GWF-(1,11378)
        114          3         14  4.65609715E-02                    1_GWF-(1,21329) -1.69593599E-03                    1_GWF-(1,14800)
        115          3         15  3.50758930E-02                    1_GWF-(1,20989) -2.98196738E-03                    1_GWF-(1,14801)
        116          3         16 -4.61240960E-02                    1_GWF-(1,26665)  3.69405608E-03                    1_GWF-(1,14801)
        117          3         17 -4.33217205E-02                    1_GWF-(1,26672) -4.62992753E-03                    1_GWF-(1,14801)
        118          3         18 -3.62308460E-02                    1_GWF-(1,26673)  6.77445751E-03                    1_GWF-(1,14801)
        119          3         19  2.97860073E-02                    1_GWF-(1,26673)  7.53698951E-03                    1_GWF-(1,14800)
        120          3         20  4.17173827E-02                    1_GWF-(1,26672)  1.05673993E-02                    1_GWF-(1,14801)
        121          3         21 -3.68846929E-02                    1_GWF-(1,20890) -1.03060376E-02                    1_GWF-(1,14801)
        122          3         22  3.09846452E-02                    1_GWF-(1,24848)  1.25462334E-02                    1_GWF-(1,14801)
        123          3         23 -3.22353886E-02                    1_GWF-(1,20222) -1.22849285E-02                    1_GWF-(1,14801)
        124          3         24  4.63476745E-02                    1_GWF-(1,26588)  1.09989536E-02                    1_GWF-(1,14801)
        125          3         25  5.64628744E-02                    1_GWF-(1,26487)  3.33075647E-03                    1_GWF-(1,14800)
        126          3         26  5.71398748E-02                    1_GWF-(1,26420)  3.90578147E-03                    1_GWF-(1,14800)
        127          3         27  4.69329646E-02                    1_GWF-(1,26487)  9.33009561E-03                    1_GWF-(1,14801)
        128          3         28  3.06227582E-02                    1_GWF-(1,25268) -1.08280514E-02                    1_GWF-(1,14801)
        129          3         29 -3.51253834E-02                    1_GWF-(1,26486)  9.03458742E-03                    1_GWF-(1,14801)
        130          3         30 -3.53959285E-02                    1_GWF-(1,26622)  3.31482344E-03                    1_GWF-(1,14800)
        131          3         31 -4.20997371E-02                    1_GWF-(1,26649)  2.75867660E-03                    1_GWF-(1,14800)
        132          3         32 -4.56433684E-02                    1_GWF-(1,26622)  7.19751816E-03                    1_GWF-(1,14801)
        133          3         33 -3.49198217E-02                    1_GWF-(1,26649) -7.99986472E-03                    1_GWF-(1,14801)
        134          3         34  2.98637980E-02                    1_GWF-(1,25735)  7.49353857E-03                    1_GWF-(1,14801)
        135          3         35 -3.60513648E-02                    1_GWF-(1,26665)  2.86688474E-03                    1_GWF-(1,14800)
        136          3         36  4.10724896E-02                    1_GWF-(1,26665) -8.32436674E-04                    1_GWF-(1,15942)
        137          3         37  3.79078780E-02                    1_GWF-(1,26666)  2.88913011E-03                    1_GWF-(1,14801)
        138          3         38  2.94968620E-02                    1_GWF-(1,26665) -3.73937829E-03                    1_GWF-(1,14801)
        139          3         39 -1.99988351E-02                    1_GWF-(1,26665)  3.69051655E-03                    1_GWF-(1,14801)
        140          3         40  2.09657371E-02                    1_GWF-(1,26421) -3.21386973E-03                    1_GWF-(1,14801)
        141          3         41  2.36512247E-02                    1_GWF-(1,26486)  1.40763187E-03                    1_GWF-(1,14801)
        142          3         42  2.75807901E-02                    1_GWF-(1,26487)  4.18740738E-04                    1_GWF-(1,15939)
        143          3         43  2.94253212E-02                    1_GWF-(1,26543) -2.20031744E-03                    1_GWF-(1,14801)
        144          3         44  3.06412525E-02                    1_GWF-(1,26588) -2.24754635E-03                    1_GWF-(1,14800)
        145          3         45  2.23485946E-02                    1_GWF-(1,26622) -2.16133058E-03                    1_GWF-(1,14801)
        146          3         46  2.11722015E-02                    1_GWF-(1,26649) -1.52554592E-03                    1_GWF-(1,14800)
        147          3         47 -1.73477081E-02                    1_GWF-(1,26138) -1.49728114E-03                    1_GWF-(1,14801)
        148          3         48 -1.62510017E-02                    1_GWF-(1,26162) -8.58568453E-04                    1_GWF-(1,15939)
        149          3         49 -1.79152766E-02                    1_GWF-(1,26649)  6.48986934E-04                    1_GWF-(1,15939)
        150          3         50 -1.49924338E-02                    1_GWF-(1,26623)  4.90885796E-04                    1_GWF-(1,15854)
        151          4          1 -1.77097932E-02                    1_GWF-(1,11936)  3.93263866E-04                    1_GWF-(1,15939)
        152          4          2 -8.67038070E-03                    1_GWF-(1,11935) -3.98798176E-04                    1_GWF-(1,14799)
        153          4          3 -8.91302503E-03                    1_GWF-(1,26217) -6.14472067E-04                    1_GWF-(1,14801)
        154          4          4 -9.17507529E-03                    1_GWF-(1,26218) -5.85348483E-04                    1_GWF-(1,14800)
        155          4          5 -7.38559163E-03                    1_GWF-(1,26217) -6.96584199E-04                    1_GWF-(1,14801)
        156          4          6 -8.18689857E-03                    1_GWF-(1,20216) -7.31378607E-04                    1_GWF-(1,14800)
        157          4          7 -7.15377572E-03                    1_GWF-(1,20577) -8.72584681E-04                    1_GWF-(1,14801)
        158          4          8 -6.57840089E-03                    1_GWF-(1,26486) -3.96226397E-04                    1_GWF-(1,14800)
        159          4          9  6.78258013E-03                    1_GWF-(1,26486) -1.99587900E-04                    1_GWF-(1,15939)
        160          4         10  6.04415602E-03                    1_GWF-(1,26487) -4.64051276E-04                    1_GWF-(1,14801)
        161          4         11  4.74189149E-03                    1_GWF-(1,26486)  6.03470019E-04                    1_GWF-(1,14801)
        162          4         12  3.78591006E-03                    1_GWF-(1,26218)  6.93149734E-04                    1_GWF-(1,14800)
        163          4         13 -5.43309359E-03                    1_GWF-(1,26674)  7.40271088E-04                    1_GWF-(1,14801)
        164          4         14 -5.61194906E-03                    1_GWF-(1,26666) -5.04118716E-04                    1_GWF-(1,14801)
        165          4         15  5.79780809E-03                    1_GWF-(1,26666)  1.41455803E-04                    1_GWF-(1,14801)
        166          4         16  7.09958492E-03                    1_GWF-(1,26665)  4.93101240E-04                    1_GWF-(1,14801)
        167          4         17 -5.50329780E-03                    1_GWF-(1,20586)  6.31641433E-04                    1_GWF-(1,14800)
        168          4         18 -3.89548269E-03                    1_GWF-(1,20732)  7.79381099E-04                    1_GWF-(1,14801)
        169          4         19  4.13281988E-03                    1_GWF-(1,26622)  6.06703374E-04                    1_GWF-(1,14800)
        170          4         20 -4.02617418E-03                    1_GWF-(1,26622)  3.45664437E-04                    1_GWF-(1,14801)
        171          4         21 -4.92799160E-03                    1_GWF-(1,26649)  2.84534785E-04                    1_GWF-(1,14801)
        172          4         22 -4.36101476E-03                    1_GWF-(1,26622) -5.98864325E-04                    1_GWF-(1,14801)
        173          4         23 -4.38181615E-03                    1_GWF-(1,26486)  8.25354302E-04                    1_GWF-(1,14801)
        174          4         24 -4.39506936E-03                    1_GWF-(1,26487) -5.98426830E-04                    1_GWF-(1,14801)
        175          4         25 -4.18194341E-03                    1_GWF-(1,26588)  3.12835375E-04                    1_GWF-(1,14801)
        176          4         26 -3.62172973E-03                    1_GWF-(1,26487)  1.90614102E-04                    1_GWF-(1,14801)
        177          4         27 -2.74623099E-03                    1_GWF-(1,26420)  4.43811782E-04                    1_GWF-(1,14800)
        178          4         28 -2.24829395E-03                     1_GWF-(1,8218)  7.04421484E-04                    1_GWF-(1,14801)
        179          4         29 -1.65985846E-03                    1_GWF-(1,23297) -7.53590097E-04                    1_GWF-(1,14801)
        180          4         30 -1.71200933E-03                    1_GWF-(1,23180)  7.62261562E-04                    1_GWF-(1,14801)
        181          4         31  1.70778131E-03                    1_GWF-(1,26422) -5.45998589E-04                    1_GWF-(1,14801)
        182          4         32  1.83174398E-03                    1_GWF-(1,26218)  4.64829458E-04                    1_GWF-(1,14801)
        183          4         33  1.37652033E-03                    1_GWF-(1,26217) -2.89526912E-04                    1_GWF-(1,14801)
        184          4         34  1.25077807E-03                    1_GWF-(1,26350)  2.02299972E-04                    1_GWF-(1,14801)
        185          4         35  1.26749026E-03                    1_GWF-(1,26422) -1.60317908E-04                    1_GWF-(1,14801)
        186          4         36  1.31252218E-03                     1_GWF-(1,7967)  8.36293588E-05                    1_GWF-(1,14801)
        187          4         37  1.22585661E-03                     1_GWF-(1,7967)  8.15276247E-05                    1_GWF-(1,15939)
        188          4         38  1.08721668E-03                    1_GWF-(1,20233) -8.52352117E-05                    1_GWF-(1,15939)
        189          4         39  9.18766442E-04                     1_GWF-(1,8068)  6.94997338E-05                    1_GWF-(1,15939)
        190          4         40 -1.20422377E-03                    1_GWF-(1,26422)  8.54771208E-05                    1_GWF-(1,14799)
        191          4         41 -1.15920901E-03                    1_GWF-(1,26350)  6.45456668E-05                    1_GWF-(1,14801)
        192          4         42 -1.14385278E-03                    1_GWF-(1,26422)  6.67203494E-05                    1_GWF-(1,14800)
        193          4         43 -1.09348755E-03                    1_GWF-(1,26350)  8.45761847E-05                    1_GWF-(1,14801)
        194          4         44 -1.00568078E-03                    1_GWF-(1,26422)  6.99141062E-05                    1_GWF-(1,14800)
        195          4         45 -8.28468526E-04                    1_GWF-(1,20180)  8.71700796E-05                    1_GWF-(1,14801)
        196          4         46 -8.38287578E-04                    1_GWF-(1,26422)  7.23335740E-05                    1_GWF-(1,14800)
        197          4         47 -6.79854802E-04                    1_GWF-(1,26350)  7.22776606E-05                    1_GWF-(1,14801)
        198          4         48  6.11983419E-04                    1_GWF-(1,26350)  5.58337214E-05                    1_GWF-(1,14800)
        199          4         49  8.10688054E-04                    1_GWF-(1,11437)  6.00088977E-05                    1_GWF-(1,14801)
        200          4         50  7.58396650E-04                    1_GWF-(1,11442)  4.11435305E-05                    1_GWF-(1,15939)
        201          5          1 -8.19809581E-03                    1_GWF-(1,11378)  2.92640589E-05                    1_GWF-(1,14801)
        202          5          2 -2.24261266E-03                    1_GWF-(1,11369)  2.63397160E-05                    1_GWF-(1,14800)
        203          5          3 -1.11225566E-03                    1_GWF-(1,11456)  3.71625230E-05                    1_GWF-(1,14801)
        204          5          4 -8.14694428E-04                    1_GWF-(1,11458)  4.05934684E-05                    1_GWF-(1,14800)
        205          5          5  6.75944439E-04                    1_GWF-(1,11468)  6.09641558E-05                    1_GWF-(1,14801)
        206          5          6  7.67826940E-04                    1_GWF-(1,11460)  5.46371590E-05                    1_GWF-(1,14800)
        207          5          7  6.03408523E-04                    1_GWF-(1,11959)  6.55611450E-05                    1_GWF-(1,14801)
        208          5          8  6.22457234E-04                    1_GWF-(1,11997)  5.06165021E-05                    1_GWF-(1,14800)
        209          5          9  7.05037829E-04                    1_GWF-(1,11977)  4.90755624E-05                    1_GWF-(1,14801)
        210          5         10  6.40034997E-04                    1_GWF-(1,11981)  3.77239764E-05                    1_GWF-(1,14799)
        211          5         11  6.32033915E-04                    1_GWF-(1,26649)  3.48989818E-05                    1_GWF-(1,14800)
        212          5         12 -6.54996586E-04                    1_GWF-(1,26649)  5.19184774E-05                    1_GWF-(1,14801)
        213          5         13 -5.55575290E-04                    1_GWF-(1,26486)  3.69226802E-05                    1_GWF-(1,14800)
        214          5         14  4.59486083E-04                    1_GWF-(1,26486)  2.97186733E-05                    1_GWF-(1,14801)
        215          5         15 -4.88645839E-04                    1_GWF-(1,26486)  2.63557467E-05                    1_GWF-(1,14799)
        216          5         16 -4.25781436E-04                    1_GWF-(1,26350) -2.39588788E-05                    1_GWF-(1,14799)
        217          5         17 -4.75270533E-04                    1_GWF-(1,26486)  3.09931045E-05                    1_GWF-(1,14799)
        218          5         18 -4.02480442E-04                    1_GWF-(1,26487) -2.49495337E-05                    1_GWF-(1,14799)
        219          5         19 -5.36413425E-04                    1_GWF-(1,26486)  2.92105825E-05                    1_GWF-(1,14799)
        220          5         20 -5.92969196E-04                    1_GWF-(1,26487)  2.38728060E-05                    1_GWF-(1,14800)
        221          5         21 -5.37658911E-04                    1_GWF-(1,26486)  2.11344280E-05                    1_GWF-(1,14801)
        222          5         22 -4.39106018E-04                    1_GWF-(1,26487)  3.68285163E-05                    1_GWF-(1,14799)
        223          5         23 -2.76011199E-04                    1_GWF-(1,21009)  2.59970666E-05                    1_GWF-(1,14798)
        224          5         24  3.52428077E-04                     1_GWF-(1,8212)  2.98117628E-05                    1_GWF-(1,14801)
        225          5         25  3.93942391E-04                     1_GWF-(1,8047) -4.44894605E-05                    1_GWF-(1,14801)
        226          5         26  3.06108045E-04                     1_GWF-(1,8043)  5.72887287E-05                    1_GWF-(1,14801)
        227          5         27  3.46689087E-04                    1_GWF-(1,20571)  6.17725490E-05                    1_GWF-(1,14800)
        228          5         28  3.24817719E-04                    1_GWF-(1,26543)  8.03235245E-05                    1_GWF-(1,14801)
        229          5         29  3.83911825E-04                    1_GWF-(1,26588) -7.21662890E-05                    1_GWF-(1,14801)
        230          5         30 -4.05321941E-04                    1_GWF-(1,26588)  2.85644002E-05                    1_GWF-(1,14801)
        231          5         31 -3.40252081E-04                    1_GWF-(1,26665)  1.96178840E-05                    1_GWF-(1,14801)
        232          5         32 -3.21190570E-04                    1_GWF-(1,26588)  4.56754115E-05                    1_GWF-(1,14800)
        233          5         33 -2.23817631E-04                    1_GWF-(1,26543)  7.51434799E-05                    1_GWF-(1,14801)
        234          5         34 -1.72542006E-04                    1_GWF-(1,26350) -8.66546121E-05                    1_GWF-(1,14801)
        235          5         35 -1.69990962E-04                    1_GWF-(1,26422)  1.01999474E-04                    1_GWF-(1,14801)
        236          5         36  1.31779373E-04                    1_GWF-(1,21268) -8.50021831E-05                    1_GWF-(1,14801)
        237          5         37 -1.17571438E-04                    1_GWF-(1,22533)  7.12755462E-05                    1_GWF-(1,14801)
        238          5         38  1.23876597E-04                     1_GWF-(1,8181) -5.12244808E-05                    1_GWF-(1,14801)
        239          5         39  1.40881244E-04                     1_GWF-(1,8013)  3.94384052E-05                    1_GWF-(1,14801)
        240          5         40 -1.68633903E-04                    1_GWF-(1,26665) -1.69266677E-05                    1_GWF-(1,14801)
        241          5         41  1.56751855E-04                    1_GWF-(1,26665) -8.87807080E-06                    1_GWF-(1,14799)
        242          5         42 -1.76008193E-04                    1_GWF-(1,26665)  2.42915684E-05                    1_GWF-(1,14801)
        243          5         43  1.58337391E-04                    1_GWF-(1,26665) -3.16339638E-05                    1_GWF-(1,14801)
        244          5         44 -1.27289140E-04                    1_GWF-(1,26665) -2.60914455E-05                    1_GWF-(1,14800)
        245          5         45 -1.07569512E-04                    1_GWF-(1,25541) -2.43100508E-05                    1_GWF-(1,14801)
        246          5         46 -9.33368304E-05                    1_GWF-(1,25533) -1.50320583E-05                    1_GWF-(1,14800)
        247          5         47 -8.98251675E-05                    1_GWF-(1,25794) -1.32887433E-05                    1_GWF-(1,14801)
        248          5         48 -9.27309509E-05                    1_GWF-(1,26135) -1.53731615E-05                    1_GWF-(1,14799)
        249          5         49 -7.97043829E-05                    1_GWF-(1,20571)  1.33161555E-05                    1_GWF-(1,14799)
        250          5         50 -8.11342556E-05                    1_GWF-(1,20572) -1.59064455E-05                    1_GWF-(1,14799)
        251          6          1 -5.54084659E-05                    1_GWF-(1,26217)  1.64375472E-05                    1_GWF-(1,14799)
        252          6          2 -6.83766544E-05                    1_GWF-(1,26218) -1.89772891E-05                    1_GWF-(1,14799)
        253          6          3 -7.81450032E-05                    1_GWF-(1,20979)  1.62343814E-05                    1_GWF-(1,14799)
        254          6          4 -7.91074201E-05                    1_GWF-(1,21356) -1.52042873E-05                    1_GWF-(1,14799)
        255          6          5 -8.34110197E-05                    1_GWF-(1,26487) -7.88173301E-06                    1_GWF-(1,14801)
        256          6          6 -9.89695055E-05                    1_GWF-(1,26486) -3.43089324E-06                    1_GWF-(1,14800)
        257          6          7 -8.60957930E-05                    1_GWF-(1,26487) -1.05305197E-05                    1_GWF-(1,14799)
        258          6          8 -7.41928653E-05                    1_GWF-(1,21689)  1.15772272E-05                    1_GWF-(1,14799)
        259          6          9 -7.28161143E-05                    1_GWF-(1,21678) -1.27317304E-05                    1_GWF-(1,14799)
        260          6         10 -6.17012608E-05                    1_GWF-(1,21679) -1.16632033E-05                    1_GWF-(1,14801)
        261          6         11 -5.68641617E-05                     1_GWF-(1,8090)  1.12231527E-05                    1_GWF-(1,14801)
        262          6         12  5.62340096E-05                    1_GWF-(1,26665)  7.40944847E-06                    1_GWF-(1,14800)
        263          6         13 -6.49266367E-05                    1_GWF-(1,26665)  3.75259092E-06                    1_GWF-(1,14799)
        264          6         14 -5.47207393E-05                    1_GWF-(1,26666)  5.70484134E-06                    1_GWF-(1,14798)
        265          6         15 -5.16946034E-05                    1_GWF-(1,20583)  8.28630211E-06                    1_GWF-(1,14799)
        266          6         16 -5.84996991E-05                    1_GWF-(1,21269)  1.18566338E-05                    1_GWF-(1,14801)
        267          6         17 -5.08266372E-05                    1_GWF-(1,20704) -1.26100239E-05                    1_GWF-(1,14801)
        268          6         18 -4.94165208E-05                    1_GWF-(1,20736)  1.31416022E-05                    1_GWF-(1,14801)
        269          6         19 -4.13267954E-05                    1_GWF-(1,20732)  8.45323743E-06                    1_GWF-(1,14800)
        270          6         20 -4.68000083E-05                    1_GWF-(1,26487)  2.96431834E-06                    1_GWF-(1,14799)
        271          6         21 -5.31023447E-05                    1_GWF-(1,26486)  5.30434215E-06                    1_GWF-(1,14801)
        272          6         22 -4.88921867E-05                    1_GWF-(1,26487) -1.05795682E-05                    1_GWF-(1,14801)
        273          6         23 -4.25750244E-05                    1_GWF-(1,26486)  1.22014810E-05                    1_GWF-(1,14801)
        274          6         24 -3.11326503E-05                    1_GWF-(1,26542) -1.03471599E-05                    1_GWF-(1,14801)
        275          6         25 -2.70877649E-05                     1_GWF-(1,8020)  8.73898414E-06                    1_GWF-(1,14801)
        276          6         26 -2.60894882E-05                     1_GWF-(1,8046) -7.28444343E-06                    1_GWF-(1,14801)
        277          6         27 -2.51574232E-05                     1_GWF-(1,8049)  5.72696678E-06                    1_GWF-(1,14801)
        278          6         28 -1.70150243E-05                     1_GWF-(1,8333)  3.13227232E-06                    1_GWF-(1,14800)
        279          6         29  2.76234315E-05                    1_GWF-(1,26588)  2.22853462E-06                    1_GWF-(1,14799)
        280          6         30  2.80153592E-05                    1_GWF-(1,26543)  1.98425772E-06                    1_GWF-(1,14801)
        281          6         31  3.14945579E-05                    1_GWF-(1,26588) -2.63968987E-06                    1_GWF-(1,14801)
        282          6         32  2.03595979E-05                    1_GWF-(1,26543)  2.84070656E-06                    1_GWF-(1,14801)
        283          6         33  1.52621906E-05                    1_GWF-(1,26420)  1.93626889E-06                    1_GWF-(1,14800)
        284          6         34  1.09565973E-05                    1_GWF-(1,26487)  1.95664613E-06                    1_GWF-(1,14799)
        285          6         35  1.35743601E-05                     1_GWF-(1,7950) -1.45796186E-06                    1_GWF-(1,14799)
        286          6         36  1.49733861E-05                     1_GWF-(1,7950)  1.62844948E-06                    1_GWF-(1,14799)
        287          6         37  1.51213926E-05                     1_GWF-(1,8084)  1.39589955E-06                    1_GWF-(1,14798)
        288          6         38  1.19768266E-05                     1_GWF-(1,7981)  2.09658660E-06                    1_GWF-(1,14799)
        289          6         39  9.85308878E-06                     1_GWF-(1,8210)  1.41475313E-06                    1_GWF-(1,14798)
        290          6         40 -1.33444517E-05                    1_GWF-(1,26422)  1.84456540E-06                    1_GWF-(1,14799)
        291          6         41 -1.34859683E-05                    1_GWF-(1,26350)  1.03257426E-06                    1_GWF-(1,14798)
        292          6         42 -1.27861315E-05                    1_GWF-(1,26422)  8.15520846E-07                    1_GWF-(1,14800)
        293          6         43 -9.70059878E-06                    1_GWF-(1,26350)  8.84291629E-07                    1_GWF-(1,14801)
        294          6         44 -1.05718043E-05                    1_GWF-(1,26623)  6.37330712E-07                    1_GWF-(1,14798)
        295          6         45 -1.10254839E-05                    1_GWF-(1,26622)  8.04912684E-07                    1_GWF-(1,14799)
        296          6         46 -8.74442520E-06                    1_GWF-(1,26623)  7.78636829E-07                    1_GWF-(1,14801)
        297          6         47 -9.48363549E-06                    1_GWF-(1,26486)  6.52224490E-07                    1_GWF-(1,14800)
        298          6         48  9.83932665E-06                    1_GWF-(1,11459)  6.93214415E-07                    1_GWF-(1,14801)
        299          6         49  1.10303076E-05                    1_GWF-(1,11454)  6.78728832E-07                    1_GWF-(1,14800)
        300          6         50  1.41904441E-05                    1_GWF-(1,11369)  1.79348992E-06                    1_GWF-(1,14799)
        301          7          1 -1.76699695E-05                    1_GWF-(1,11369) -9.67314385E-07                    1_GWF-(1,14799)
        302          7          2 -1.22384689E-05                    1_GWF-(1,11378)  1.01146520E-06                    1_GWF-(1,14799)
        303          7          3  7.46078356E-06                    1_GWF-(1,11378)  5.04527428E-07                    1_GWF-(1,14798)
        304          7          4  1.02490206E-05                    1_GWF-(1,26486)  4.26152741E-07                    1_GWF-(1,14801)
        305          7          5  8.55409833E-06                    1_GWF-(1,26487)  6.48734779E-07                    1_GWF-(1,14799)
        306          7          6  7.20585344E-06                    1_GWF-(1,26420)  6.83434707E-07                    1_GWF-(1,14798)
        307          7          7  6.96478007E-06                    1_GWF-(1,26422)  9.45622353E-07                    1_GWF-(1,14799)
        308          7          8 -7.79639561E-06                    1_GWF-(1,11378)  5.62131756E-07                    1_GWF-(1,14800)
        309          7          9  7.72560273E-06                    1_GWF-(1,20584)  6.26271096E-07                    1_GWF-(1,14801)
        310          7         10  7.02036623E-06                    1_GWF-(1,20577)  7.86959524E-07                    1_GWF-(1,14799)
        311          7         11 -6.99493188E-06                    1_GWF-(1,26648)  6.75084013E-07                    1_GWF-(1,14798)
        312          7         12 -8.77819262E-06                    1_GWF-(1,26649)  6.91652550E-07                    1_GWF-(1,14799)
        313          7         13  9.22771966E-06                    1_GWF-(1,26649)  3.57835416E-07                    1_GWF-(1,14800)
        314          7         14  7.08369316E-06                    1_GWF-(1,26622)  4.07460833E-07                    1_GWF-(1,14798)
        315          7         15 -6.88416243E-06                     1_GWF-(1,7958)  7.30637318E-07                    1_GWF-(1,14799)
        316          7         16 -6.19944400E-06                     1_GWF-(1,7950) -8.43642665E-07                    1_GWF-(1,14799)
        317          7         17 -4.58015629E-06                     1_GWF-(1,7946)  9.98095808E-07                    1_GWF-(1,14799)
        318          7         18 -5.26445701E-06                    1_GWF-(1,26623) -6.36360966E-07                    1_GWF-(1,14799)
        319          7         19 -6.53204846E-06                    1_GWF-(1,26665)  3.85190487E-07                    1_GWF-(1,14799)
        320          7         20 -6.52424448E-06                    1_GWF-(1,26588)  4.93525188E-07                    1_GWF-(1,14799)
        321          7         21 -5.26337660E-06                    1_GWF-(1,26665)  6.83752866E-07                    1_GWF-(1,14798)
        322          7         22 -5.20724257E-06                    1_GWF-(1,26588)  1.06566365E-06                    1_GWF-(1,14799)
        323          7         23  4.28194092E-06                    1_GWF-(1,26588) -8.26425726E-07                    1_GWF-(1,14799)
        324          7         24  4.37608585E-06                     1_GWF-(1,8043)  7.32267858E-07                    1_GWF-(1,14799)
        325          7         25  5.13746464E-06                    1_GWF-(1,26588) -3.89251599E-07                    1_GWF-(1,14799)
        326          7         26  4.89929446E-06                    1_GWF-(1,26543)  2.16605675E-07                    1_GWF-(1,14801)
        327          7         27  4.62327316E-06                    1_GWF-(1,26588)  6.61798092E-07                    1_GWF-(1,14799)
        328          7         28  3.87513948E-06                    1_GWF-(1,26543) -8.04212021E-07                    1_GWF-(1,14799)
        329          7         29  3.08947887E-06                    1_GWF-(1,22568)  7.73149081E-07                    1_GWF-(1,14799)
        330          7         30 -3.69849005E-06                     1_GWF-(1,8046) -8.11880933E-07                    1_GWF-(1,14799)
        331          7         31 -2.85455343E-06                     1_GWF-(1,8444)  7.29802207E-07                    1_GWF-(1,14799)
        332          7         32 -2.55097966E-06                     1_GWF-(1,8215) -5.46661844E-07                    1_GWF-(1,14801)
        333          7         33 -2.31746870E-06                     1_GWF-(1,8226)  6.97630730E-07                    1_GWF-(1,14801)
        334          7         34  1.86665863E-06                    1_GWF-(1,26623) -6.97310931E-07                    1_GWF-(1,14801)
        335          7         35  2.83012430E-06                    1_GWF-(1,26622)  5.88561680E-07                    1_GWF-(1,14801)
        336          7         36 -3.09723902E-06                    1_GWF-(1,26622)  2.40118749E-07                    1_GWF-(1,14799)
        337          7         37 -2.43419334E-06                    1_GWF-(1,26649) -3.45875304E-07                    1_GWF-(1,14801)
        338          7         38  1.64667814E-06                    1_GWF-(1,26649)  6.19158147E-07                    1_GWF-(1,14801)
        339          7         39  2.02941181E-06                     1_GWF-(1,8013) -7.04701042E-07                    1_GWF-(1,14801)
        340          7         40  1.85648344E-06                     1_GWF-(1,8009)  7.88387860E-07                    1_GWF-(1,14801)
        341          7         41  1.33386566E-06                     1_GWF-(1,8016) -7.36597939E-07                    1_GWF-(1,14801)
        342          7         42 -1.23583866E-06                    1_GWF-(1,26486)  5.41389346E-07                    1_GWF-(1,14801)
        343          7         43  1.56493837E-06                    1_GWF-(1,26486) -2.41868505E-07                    1_GWF-(1,14801)
        344          7         44  2.14158604E-06                    1_GWF-(1,26487) -1.27675023E-07                    1_GWF-(1,14801)
        345          7         45  2.13456028E-06                    1_GWF-(1,26486)  3.03785416E-07                    1_GWF-(1,14801)
        346          7         46  1.58058165E-06                    1_GWF-(1,26487) -3.81942665E-07                    1_GWF-(1,14801)
        347          7         47 -1.01831368E-06                    1_GWF-(1,25662)  2.89191517E-07                    1_GWF-(1,14801)
        348          7         48 -1.08631018E-06                    1_GWF-(1,25803) -2.15367521E-07                    1_GWF-(1,14801)
        349          7         49 -8.39292605E-07                    1_GWF-(1,26135) -1.97923518E-07                    1_GWF-(1,14799)
        350          8          1  3.15116091E-07                     1_GWF-(1,8191)  1.80103692E-07                    1_GWF-(1,14799)
 --------------------------------------------------------------------------------------------------------------------------------------


 UBDSV1 SAVING     FLOW-JA-FACE ON UNIT   1020 AT TIME STEP      1, STRESS PERIOD      1
 UBDSV06 SAVING       DATA-SPDIS IN MODEL ML               PACKAGE NPF             CONNECTED TO MODEL ML               PACKAGE NPF              ON UNIT   1020 AT TIME STEP      1, STRESS PERIOD      1
 UBDSV06 SAVING              WEL IN MODEL ML               PACKAGE ML              CONNECTED TO MODEL ML               PACKAGE WEL_0            ON UNIT   1020 AT TIME STEP      1, STRESS PERIOD      1
 UBDSV06 SAVING              DRN IN MODEL ML               PACKAGE ML              CONNECTED TO MODEL ML               PACKAGE DRN_0            ON UNIT   1020 AT TIME STEP      1, STRESS PERIOD      1
 UBDSV06 SAVING              RIV IN MODEL ML               PACKAGE ML              CONNECTED TO MODEL ML               PACKAGE RIV_0            ON UNIT   1020 AT TIME STEP      1, STRESS PERIOD      1
 UBDSV06 SAVING              GHB IN MODEL ML               PACKAGE ML              CONNECTED TO MODEL ML               PACKAGE GHB_0            ON UNIT   1020 AT TIME STEP      1, STRESS PERIOD      1
 UBDSV06 SAVING              RCH IN MODEL ML               PACKAGE ML              CONNECTED TO MODEL ML               PACKAGE RCHA_0           ON UNIT   1020 AT TIME STEP      1, STRESS PERIOD      1

 HEAD WILL BE SAVED ON UNIT 1021 AT END OF TIME STEP    1, STRESS PERIOD    1


  VOLUME BUDGET FOR ENTIRE MODEL AT END OF TIME STEP    1, STRESS PERIOD   1
  ---------------------------------------------------------------------------------------------------

     CUMULATIVE VOLUME      L**3       RATES FOR THIS TIME STEP      L**3/T          PACKAGE NAME    
     ------------------                 ------------------------                     ----------------

           IN:                                      IN:
           ---                                      ---
                 WEL =           0.0000                   WEL =           0.0000     WEL_0           
                 DRN =           0.0000                   DRN =           0.0000     DRN_0           
                 RIV =           8.7264                   RIV =           0.9696     RIV_0           
                 GHB =          17.1245                   GHB =           1.9027     GHB_0           
                 RCH =           1.4294                   RCH =           0.1588     RCHA_0          

            TOTAL IN =          27.2802              TOTAL IN =           3.0311

          OUT:                                     OUT:
          ----                                     ----
                 WEL =           1.4412                   WEL =           0.1601     WEL_0           
                 DRN =           1.7789                   DRN =           0.1977     DRN_0           
                 RIV =          24.0272                   RIV =           2.6697     RIV_0           
                 GHB =       3.2979E-02                   GHB =       3.6644E-03     GHB_0           
                 RCH =           0.0000                   RCH =           0.0000     RCHA_0          

           TOTAL OUT =          27.2802             TOTAL OUT =           3.0311

            IN - OUT =      -1.9025E-05              IN - OUT =      -2.1139E-06

 PERCENT DISCREPANCY =          -0.00     PERCENT DISCREPANCY =          -0.00




         TIME SUMMARY AT END OF TIME STEP    1 IN STRESS PERIOD    1
                    SECONDS     MINUTES      HOURS       DAYS        YEARS
                    -----------------------------------------------------------
   TIME STEP LENGTH  9.0000     0.15000     2.50000E-03 1.04167E-04 2.85193E-07
 STRESS PERIOD TIME  9.0000     0.15000     2.50000E-03 1.04167E-04 2.85193E-07
         TOTAL TIME  9.0000     0.15000     2.50000E-03 1.04167E-04 2.85193E-07


end timestep

