                                   MODFLOW 6
                U.S. GEOLOGICAL SURVEY MODULAR HYDROLOGIC MODEL
                          GROUNDWATER FLOW MODEL (GWF)
                            VERSION 6.2.2 07/30/2021

   MODFLOW 6 compiled Jul 31 2021 14:22:53 with IFORT compiler (ver. 19.10.3)

This software has been approved for release by the U.S. Geological 
Survey (USGS). Although the software has been subjected to rigorous 
review, the USGS reserves the right to update the software as needed 
pursuant to further analysis and review. No warranty, expressed or 
implied, is made by the USGS or the U.S. Government as to the 
functionality of the software and related material nor shall the 
fact of release constitute any such warranty. Furthermore, the 
software is released on condition that neither the USGS nor the U.S. 
Government shall be held liable for any damages resulting from its 
authorized or unauthorized use. Also refer to the USGS Water 
Resources Software User Rights Notice for complete use, copyright, 
and distribution information.


System command used to initiate simulation:
mf6

MODFLOW was compiled using uniform precision.

Real Variables
  KIND: 8
  TINY (smallest non-zero value):    2.225074-308
  HUGE (largest value):    1.797693+308
  PRECISION: 15
  BIT SIZE: 64

Integer Variables
  KIND: 4
  HUGE (largest value): 2147483647
  BIT SIZE: 32

Long Integer Variables
  KIND: 8
  HUGE (largest value): 9223372036854775807
  BIT SIZE: 64

Logical Variables
  KIND: 4
  BIT SIZE: 32
 

 OPENED ./ml.disv
 FILE TYPE:DISV6                  UNIT 1005   STATUS:OLD                 
 FORMAT:FORMATTED              ACCESS:SEQUENTIAL          
 ACTION:READ                


 OPENED ./ml.ic
 FILE TYPE:IC6                    UNIT 1006   STATUS:OLD                 
 FORMAT:FORMATTED              ACCESS:SEQUENTIAL          
 ACTION:READ                


 OPENED ./ml.npf
 FILE TYPE:NPF6                   UNIT 1007   STATUS:OLD                 
 FORMAT:FORMATTED              ACCESS:SEQUENTIAL          
 ACTION:READ                


 OPENED ./ml.ghb
 FILE TYPE:GHB6                   UNIT 1008   STATUS:OLD                 
 FORMAT:FORMATTED              ACCESS:SEQUENTIAL          
 ACTION:READ                


 OPENED ./ml.rcha
 FILE TYPE:RCH6                   UNIT 1009   STATUS:OLD                 
 FORMAT:FORMATTED              ACCESS:SEQUENTIAL          
 ACTION:READ                


 OPENED ./ml.obs
 FILE TYPE:OBS6                   UNIT 1010   STATUS:OLD                 
 FORMAT:FORMATTED              ACCESS:SEQUENTIAL          
 ACTION:READ                


 OPENED ./ml.oc
 FILE TYPE:OC6                    UNIT 1011   STATUS:OLD                 
 FORMAT:FORMATTED              ACCESS:SEQUENTIAL          
 ACTION:READ                


 OPENED ml.wel
 FILE TYPE:WEL6                   UNIT 1012   STATUS:OLD                 
 FORMAT:FORMATTED              ACCESS:SEQUENTIAL          
 ACTION:READ                


 OPENED ml.drn
 FILE TYPE:DRN6                   UNIT 1013   STATUS:OLD                 
 FORMAT:FORMATTED              ACCESS:SEQUENTIAL          
 ACTION:READ                


 OPENED ml.riv
 FILE TYPE:RIV6                   UNIT 1014   STATUS:OLD                 
 FORMAT:FORMATTED              ACCESS:SEQUENTIAL          
 ACTION:READ                


 DISV -- VERTEX GRID DISCRETIZATION PACKAGE, VERSION 1 : 12/23/2015 - INPUT READ FROM UNIT 1005


 # File generated by Flopy version 3.3.5 on 04/28/2022 at 15:59:32.

 PROCESSING DISCRETIZATION OPTIONS
    MODEL LENGTH UNIT IS METERS
    XORIGIN SPECIFIED AS     405575.681000000    
    YORIGIN SPECIFIED AS     6423306.54000000    
 END OF DISCRETIZATION OPTIONS

 PROCESSING DISCRETIZATION DIMENSIONS
   NLAY = 1
   NCPL = 26674
   NVERT = 27090
 END OF DISCRETIZATION DIMENSIONS

 PROCESSING GRIDDATA
 END PROCESSING GRIDDATA

 PROCESSING VERTICES
   SUCCESSFULLY READ 27090 (X,Y) COORDINATES
   MINIMUM X COORDINATE =     405575.681000000    
   MAXIMUM X COORDINATE =     413975.681000000    
   MINIMUM Y COORDINATE =     6423306.54000000    
   MAXIMUM Y COORDINATE =     6432506.54000000    
 END PROCESSING VERTICES

 PROCESSING CELL2D
   SUCCESSFULLY READ 26674 CELL2D INFORMATION ENTRIES
   MINIMUM X CELL CENTER =     405675.681000000    
   MAXIMUM X CELL CENTER =     413875.681000000    
   MINIMUM Y CELL CENTER =     6423406.54000000    
   MAXIMUM Y CELL CENTER =     6432406.54000000    
   MAXIMUM NUMBER OF CELL2D VERTICES IS 6 FOR CELL 208
 END PROCESSING VERTICES

 NPF -- NODE PROPERTY FLOW PACKAGE, VERSION 1, 3/30/2015 INPUT READ FROM UNIT 1007


 # File generated by Flopy version 3.3.5 on 04/28/2022 at 15:59:34.
 PROCESSING NPF OPTIONS
    CELL-BY-CELL FLOW INFORMATION WILL BE SAVED TO BINARY FILE WHENEVER ICBCFL IS NOT ZERO.
    SPECIFIC DISCHARGE WILL BE CALCULATED AT CELL CENTERS AND WRITTEN TO DATA-SPDIS IN BUDGET FILE WHEN REQUESTED.
 END OF NPF OPTIONS

 WEL   -- WEL PACKAGE, VERSION 8, 2/22/2014 INPUT READ FROM UNIT 1012
 # File generated by Flopy version 3.3.5 on 04/28/2022 at 15:59:35.

 PROCESSING WEL OPTIONS
    WEL BOUNDARIES HAVE NAMES IN LAST COLUMN.
    FLOWS WILL BE SAVED TO BUDGET FILE SPECIFIED IN OUTPUT CONTROL
 END OF WEL OPTIONS

 PROCESSING WEL DIMENSIONS
    MAXBOUND =       9
 END OF WEL DIMENSIONS

 DRN   -- DRN PACKAGE, VERSION 8, 2/22/2014 INPUT READ FROM UNIT 1013
 # File generated by Flopy version 3.3.5 on 04/28/2022 at 15:59:35.

 PROCESSING DRN OPTIONS
    DRN BOUNDARIES HAVE NAMES IN LAST COLUMN.
    FLOWS WILL BE SAVED TO BUDGET FILE SPECIFIED IN OUTPUT CONTROL

 OPENED ml.drn.obs
 FILE TYPE:OBS   UNIT 1016   STATUS:OLD                 
 FORMAT:FORMATTED              ACCESS:SEQUENTIAL          
 ACTION:READ                

 END OF DRN OPTIONS

 PROCESSING DRN DIMENSIONS
    MAXBOUND =     133
 END OF DRN DIMENSIONS

 RIV   -- RIV PACKAGE, VERSION 8, 2/22/2014 INPUT READ FROM UNIT 1014
 # File generated by Flopy version 3.3.5 on 04/28/2022 at 15:59:35.

 PROCESSING RIV OPTIONS
    AUXILIARY RIV VARIABLE: FID             
    RIV BOUNDARIES HAVE NAMES IN LAST COLUMN.
    FLOWS WILL BE SAVED TO BUDGET FILE SPECIFIED IN OUTPUT CONTROL
 END OF RIV OPTIONS

 PROCESSING RIV DIMENSIONS
    MAXBOUND =     794
 END OF RIV DIMENSIONS

 GHB   -- GHB PACKAGE, VERSION 8, 2/22/2014 INPUT READ FROM UNIT 1008
 # File generated by Flopy version 3.3.5 on 04/28/2022 at 15:59:34.

 PROCESSING GHB OPTIONS
    GHB BOUNDARIES HAVE NAMES IN LAST COLUMN.
    FLOWS WILL BE SAVED TO BUDGET FILE SPECIFIED IN OUTPUT CONTROL
 END OF GHB OPTIONS

 PROCESSING GHB DIMENSIONS
    MAXBOUND =     153
 END OF GHB DIMENSIONS

 RCH   -- RCH PACKAGE, VERSION 8, 2/22/2014 INPUT READ FROM UNIT 1009
 # File generated by Flopy version 3.3.5 on 04/28/2022 at 15:59:34.

 PROCESSING RCH OPTIONS
    RECHARGE INPUT WILL BE READ AS ARRAY(S).
    FLOWS WILL BE SAVED TO BUDGET FILE SPECIFIED IN OUTPUT CONTROL
 END OF RCH OPTIONS

 IC -- INITIAL CONDITIONS PACKAGE, VERSION 8, 3/28/2015 INPUT READ FROM UNIT 1006
 # File generated by Flopy version 3.3.5 on 04/28/2022 at 15:59:34.
 PROCESSING GRIDDATA

     INITIAL HEAD =   15.00000    
 END PROCESSING GRIDDATA
 PROCESSING GRIDDATA

                ICELLTYPE = 0

 OPENED ../com_ext/k.txt
 FILE TYPE:OPEN/CLOSE   UNIT 1017   STATUS:OLD                 
 FORMAT:FORMATTED              ACCESS:SEQUENTIAL          
 ACTION:READ                

 K33 not provided.  Assuming K33 = K.
 K22 not provided.  Assuming K22 = K.
 END PROCESSING GRIDDATA

The observation utility is active for "ML"
 # File generated by Flopy version 3.3.5 on 04/28/2022 at 15:59:35.

Processing observation options:

Text output number of digits of precision set to: 10
The PRINT_INPUT option has been specified.


 OBSERVATIONS READ FROM FILE "ml.obs"
 ----------------------------------------------------------------------------------------------------------------------------------------------------------------------------------------------------------------------------
 NAME                                     TYPE                                       TIME         LOCATION DATA                              OUTPUT FILENAME                                                                 
 ----------------------------------------------------------------------------------------------------------------------------------------------------------------------------------------------------------------------------
 PRG                                      CONTINUOUS  HEAD                           ALL TIMES    "1 16523"                                  sim/hds.csv                                                                     
 P8                                       CONTINUOUS  HEAD                           ALL TIMES    "1 10323"                                  sim/hds.csv                                                                     
 P24                                      CONTINUOUS  HEAD                           ALL TIMES    "1 9594"                                   sim/hds.csv                                                                     
 P25                                      CONTINUOUS  HEAD                           ALL TIMES    "1 13966"                                  sim/hds.csv                                                                     
 P32                                      CONTINUOUS  HEAD                           ALL TIMES    "1 15787"                                  sim/hds.csv                                                                     
 P33                                      CONTINUOUS  HEAD                           ALL TIMES    "1 15825"                                  sim/hds.csv                                                                     
 PF                                       CONTINUOUS  HEAD                           ALL TIMES    "1 21048"                                  sim/hds.csv                                                                     
 PH                                       CONTINUOUS  HEAD                           ALL TIMES    "1 20781"                                  sim/hds.csv                                                                     
 PZHM1                                    CONTINUOUS  HEAD                           ALL TIMES    "1 14521"                                  sim/hds.csv                                                                     
 P26                                      CONTINUOUS  HEAD                           ALL TIMES    "1 13141"                                  sim/hds.csv                                                                     
 P27                                      CONTINUOUS  HEAD                           ALL TIMES    "1 8465"                                   sim/hds.csv                                                                     
 P28                                      CONTINUOUS  HEAD                           ALL TIMES    "1 8924"                                   sim/hds.csv                                                                     
 P29                                      CONTINUOUS  HEAD                           ALL TIMES    "1 4524"                                   sim/hds.csv                                                                     
 P30                                      CONTINUOUS  HEAD                           ALL TIMES    "1 5255"                                   sim/hds.csv                                                                     
 R20                                      CONTINUOUS  HEAD                           ALL TIMES    "1 10676"                                  sim/hds.csv                                                                     
 R21                                      CONTINUOUS  HEAD                           ALL TIMES    "1 10403"                                  sim/hds.csv                                                                     
 P34                                      CONTINUOUS  HEAD                           ALL TIMES    "1 15131"                                  sim/hds.csv                                                                     
 P37                                      CONTINUOUS  HEAD                           ALL TIMES    "1 15755"                                  sim/hds.csv                                                                     
 P38                                      CONTINUOUS  HEAD                           ALL TIMES    "1 15045"                                  sim/hds.csv                                                                     
 P39                                      CONTINUOUS  HEAD                           ALL TIMES    "1 9637"                                   sim/hds.csv                                                                     
 P40                                      CONTINUOUS  HEAD                           ALL TIMES    "1 9312"                                   sim/hds.csv                                                                     
 AP1                                      CONTINUOUS  HEAD                           ALL TIMES    "1 9702"                                   sim/hds.csv                                                                     
 RCK1                                     CONTINUOUS  HEAD                           ALL TIMES    "1 15900"                                  sim/hds.csv                                                                     
 RCK2                                     CONTINUOUS  HEAD                           ALL TIMES    "1 15199"                                  sim/hds.csv                                                                     
 P23                                      CONTINUOUS  HEAD                           ALL TIMES    "1 6409"                                   sim/hds.csv                                                                     
 ----------------------------------------------------------------------------------------------------------------------------------------------------------------------------------------------------------------------------


    BINARY GRID INFORMATION WILL BE WRITTEN TO:
      UNIT NUMBER: 1019
      FILE NAME: /srv/common/ptrack/case_study/pst/ml_09/./ml.disv.grb

 OPENED /srv/common/ptrack/case_study/pst/ml_09/./ml.disv.grb
 FILE TYPE:DATA(BINARY)   UNIT 1019   STATUS:REPLACE             
 FORMAT:UNFORMATTED            ACCESS:STREAM              
 ACTION:READWRITE           

      THE LAST TIME STEP WILL BE PRINTED
      THE LAST TIME STEP WILL BE PRINTED
 # File generated by Flopy version 3.3.5 on 04/28/2022 at 15:59:35.

 PROCESSING OC OPTIONS

    BUDGET INFORMATION WILL BE WRITTEN TO:
      UNIT NUMBER: 1020
      FILE NAME: ml.cbc

 OPENED ml.cbc
 FILE TYPE:DATA(BINARY)   UNIT 1020   STATUS:REPLACE             
 FORMAT:UNFORMATTED            ACCESS:STREAM              
 ACTION:READWRITE           

    HEAD INFORMATION WILL BE WRITTEN TO:
      UNIT NUMBER: 1021
      FILE NAME: ml.hds

 OPENED ml.hds
 FILE TYPE:DATA(BINARY)   UNIT 1021   STATUS:REPLACE             
 FORMAT:UNFORMATTED            ACCESS:STREAM              
 ACTION:READWRITE           

 END OF OC OPTIONS

The observation utility is active for "DRN_0"
 # File generated by Flopy version 3.3.5 on 04/28/2022 at 15:59:35.

Processing observation options:



start timestep kper="1" kstp="1" mode="normal"


 BEGIN READING OUTPUT CONTROL FOR STRESS PERIOD 1
      THE LAST TIME STEP WILL BE SAVED
      THE LAST TIME STEP WILL BE SAVED

 END READING OUTPUT CONTROL FOR STRESS PERIOD 1

 OPENED ext/wel_spd_1.txt
 FILE TYPE:OPEN/CLOSE   UNIT 1023   STATUS:OLD                 
 FORMAT:FORMATTED              ACCESS:SEQUENTIAL          
 ACTION:READ                


 OPENED ext/drn_spd_1.txt
 FILE TYPE:OPEN/CLOSE   UNIT 1024   STATUS:OLD                 
 FORMAT:FORMATTED              ACCESS:SEQUENTIAL          
 ACTION:READ                


 OPENED ext/riv_spd_1.txt
 FILE TYPE:OPEN/CLOSE   UNIT 1025   STATUS:OLD                 
 FORMAT:FORMATTED              ACCESS:SEQUENTIAL          
 ACTION:READ                


 OPENED ../com_ext/ghb_spd_1.txt
 FILE TYPE:OPEN/CLOSE   UNIT 1026   STATUS:OLD                 
 FORMAT:FORMATTED              ACCESS:SEQUENTIAL          
 ACTION:READ                


 OPENED ../com_ext/rech_spd_1.txt
 FILE TYPE:OPEN/CLOSE   UNIT 1027   STATUS:OLD                 
 FORMAT:FORMATTED              ACCESS:SEQUENTIAL          
 ACTION:READ                


 SLN_1 INNER ITERATION SUMMARY
 --------------------------------------------------------------------------------------------------------------------------------------
      TOTAL      OUTER      INNER                                                            MAXIMUM                                   
  ITERATION  ITERATION  ITERATION  MAXIMUM CHANGE      MAXIMUM CHANGE MODEL-(CELLID)        RESIDUAL    MAXIMUM RESIDUAL MODEL-(CELLID)
 --------------------------------------------------------------------------------------------------------------------------------------
          1          1          1      -11.850609                    1_GWF-(1,12785)      0.15901829                    1_GWF-(1,11171)
          2          1          2       7.7850623                    1_GWF-(1,26516)      0.21838549                    1_GWF-(1,10969)
          3          1          3       9.4343368                    1_GWF-(1,26565)      0.20939930                    1_GWF-(1,10968)
          4          1          4       8.6969433                    1_GWF-(1,26510)      0.18718885                    1_GWF-(1,10955)
          5          1          5       6.7523795                    1_GWF-(1,26647)      0.18320325                    1_GWF-(1,10869)
          6          1          6       7.1657563                    1_GWF-(1,26649)      0.14864191                    1_GWF-(1,11140)
          7          1          7       5.5514847                    1_GWF-(1,26622)      0.19825919                    1_GWF-(1,10969)
          8          1          8       4.5393460                    1_GWF-(1,26665)      0.16090926                    1_GWF-(1,10963)
          9          1          9       3.9082725                    1_GWF-(1,26647)      0.16380764                    1_GWF-(1,10956)
         10          1         10       4.5856097                    1_GWF-(1,26665)      0.16212225                    1_GWF-(1,10869)
         11          1         11       4.2132842                    1_GWF-(1,26544)      0.14054627                    1_GWF-(1,10969)
         12          1         12       3.0664889                    1_GWF-(1,26486)      0.14011995                    1_GWF-(1,10966)
         13          1         13       2.9950284                    1_GWF-(1,26622)      0.13105659                    1_GWF-(1,10962)
         14          1         14       2.4657010                    1_GWF-(1,26623)      0.12463133                    1_GWF-(1,10969)
         15          1         15       2.3156813                    1_GWF-(1,26622)      0.14168264                    1_GWF-(1,10968)
         16          1         16       1.5430928                    1_GWF-(1,26623)      0.12961937                    1_GWF-(1,10961)
         17          1         17      -1.5470372                    1_GWF-(1,26623)      0.13231968                    1_GWF-(1,10958)
         18          1         18       2.4610869                    1_GWF-(1,26588)      0.14287468                    1_GWF-(1,10969)
         19          1         19      -3.3351096                    1_GWF-(1,26588)      0.13923902                    1_GWF-(1,10968)
         20          1         20      -3.1389121                    1_GWF-(1,26543)      0.12866254                    1_GWF-(1,10963)
         21          1         21      -2.7125396                    1_GWF-(1,26544)      0.11821613                    1_GWF-(1,10958)
         22          1         22      -3.4917433                    1_GWF-(1,26486)      0.12816156                    1_GWF-(1,10969)
         23          1         23      -3.9235121                    1_GWF-(1,26487)      0.11244612                    1_GWF-(1,10965)
         24          1         24      -4.1888325                    1_GWF-(1,26486)      0.12149789                    1_GWF-(1,10963)
         25          1         25      -3.3375921                    1_GWF-(1,26487)      0.10613097                    1_GWF-(1,10955)
         26          1         26      -2.2525617                    1_GWF-(1,26588)  9.23279793E-02                    1_GWF-(1,10869)
         27          1         27       2.2019481                    1_GWF-(1,26420)      0.11386634                    1_GWF-(1,10965)
         28          1         28       1.8258992                    1_GWF-(1,26487)      0.11420365                    1_GWF-(1,10957)
         29          1         29       1.8082204                    1_GWF-(1,26420)      0.10373703                    1_GWF-(1,10872)
         30          1         30       1.9710832                    1_GWF-(1,26422)      0.10425966                    1_GWF-(1,10965)
         31          1         31       2.2498403                    1_GWF-(1,26350)      0.11733540                    1_GWF-(1,10960)
         32          1         32       2.5767867                    1_GWF-(1,26422)  9.86750112E-02                    1_GWF-(1,10958)
         33          1         33      -2.5093677                    1_GWF-(1,26422) -7.87910100E-02                    1_GWF-(1,10960)
         34          1         34       2.4130453                    1_GWF-(1,26422)  6.54144358E-02                    1_GWF-(1,10966)
         35          1         35      -2.0677317                    1_GWF-(1,26422)  7.13374763E-02                    1_GWF-(1,10958)
         36          1         36      -1.5788643                    1_GWF-(1,26350)  6.08922378E-02                    1_GWF-(1,10968)
         37          1         37      -1.2631972                    1_GWF-(1,26422) -4.65235764E-02                    1_GWF-(1,10962)
         38          1         38     -0.94875404                    1_GWF-(1,24901) -5.45462286E-02                    1_GWF-(1,10967)
         39          1         39     -0.88313079                    1_GWF-(1,24895)  4.64529875E-02                    1_GWF-(1,10968)
         40          1         40      -1.0725983                    1_GWF-(1,26648)  4.28518191E-02                    1_GWF-(1,10961)
         41          1         41      -1.4087674                    1_GWF-(1,26649)  4.61817890E-02                    1_GWF-(1,10963)
         42          1         42      -1.4928633                    1_GWF-(1,26648) -4.64799784E-02                    1_GWF-(1,10991)
         43          1         43      -1.2812541                    1_GWF-(1,26586) -5.99275919E-02                    1_GWF-(1,11138)
         44          1         44      -1.1197783                    1_GWF-(1,26623) -4.26480700E-02                    1_GWF-(1,11132)
         45          1         45      0.99761651                    1_GWF-(1,26218) -5.26937832E-02                    1_GWF-(1,11140)
         46          1         46     -0.88467719                    1_GWF-(1,21319) -4.71409729E-02                    1_GWF-(1,11138)
         47          1         47      -1.1013984                    1_GWF-(1,26217)  4.60966605E-02                    1_GWF-(1,11139)
         48          1         48      -1.4214859                    1_GWF-(1,26218)  4.72845211E-02                    1_GWF-(1,14868)
         49          1         49      -1.4778360                    1_GWF-(1,26217) -4.93729231E-02                    1_GWF-(1,10990)
         50          1         50      -1.3771044                    1_GWF-(1,26218)  4.25185166E-02                    1_GWF-(1,14868)
         51          2          1      -41.230460                    1_GWF-(1,26519)     -0.14292047                    1_GWF-(1,26519)
         52          2          2      -15.980627                    1_GWF-(1,26513) -4.50428179E-02                    1_GWF-(1,26516)
         53          2          3      -7.6108148                    1_GWF-(1,26637)  3.55866832E-02                    1_GWF-(1,26516)
         54          2          4      -9.2625923                    1_GWF-(1,26665)  3.39756049E-02                    1_GWF-(1,14868)
         55          2          5      -4.9311632                    1_GWF-(1,26622)  2.76764434E-02                    1_GWF-(1,14869)
         56          2          6      -4.7551158                    1_GWF-(1,26589)  4.16285280E-02                    1_GWF-(1,14868)
         57          2          7      -3.8445733                    1_GWF-(1,26543)  3.90378349E-02                    1_GWF-(1,14869)
         58          2          8      -3.5776454                    1_GWF-(1,26486)  6.36590288E-02                    1_GWF-(1,14868)
         59          2          9      -2.4058288                    1_GWF-(1,26487)  4.15106710E-02                    1_GWF-(1,14869)
         60          2         10      -2.2743072                    1_GWF-(1,26350)  4.04062431E-02                    1_GWF-(1,14868)
         61          2         11      -1.8813727                    1_GWF-(1,26348)  9.89768417E-03                    1_GWF-(1,14868)
         62          2         12      -1.6442403                    1_GWF-(1,26217)  2.31469799E-02                    1_GWF-(1,14869)
         63          2         13      -1.0479332                    1_GWF-(1,26218)  3.64604992E-02                    1_GWF-(1,14868)
         64          2         14     -0.69581709                    1_GWF-(1,26649)  2.96853497E-02                    1_GWF-(1,14869)
         65          2         15     -0.73985916                    1_GWF-(1,26622)  2.50514835E-02                    1_GWF-(1,14868)
         66          2         16      0.89568243                    1_GWF-(1,26420)  2.46012720E-02                    1_GWF-(1,14868)
         67          2         17       1.1712465                    1_GWF-(1,26218)  2.78864506E-02                    1_GWF-(1,14869)
         68          2         18      0.97078855                    1_GWF-(1,26217)  3.92797614E-02                    1_GWF-(1,14868)
         69          2         19      0.84825320                    1_GWF-(1,26218)  2.50004897E-02                    1_GWF-(1,14869)
         70          2         20      0.66339071                    1_GWF-(1,26543)  2.26914675E-02                    1_GWF-(1,14868)
         71          2         21      0.94283864                    1_GWF-(1,26588)  1.54661819E-02                    1_GWF-(1,14868)
         72          2         22      0.98852044                    1_GWF-(1,26543)  2.47416888E-02                    1_GWF-(1,14869)
         73          2         23     -0.62427246                    1_GWF-(1,26218)  4.50791163E-02                    1_GWF-(1,14868)
         74          2         24     -0.82092820                    1_GWF-(1,26487)  3.56959341E-02                    1_GWF-(1,14869)
         75          2         25      -1.1191704                    1_GWF-(1,26486)  3.55401092E-02                    1_GWF-(1,14868)
         76          2         26      -1.1092963                    1_GWF-(1,26487)  1.25207026E-02                    1_GWF-(1,14868)
         77          2         27     -0.71567181                    1_GWF-(1,26588)  2.76345433E-02                    1_GWF-(1,14869)
         78          2         28     -0.34697148                    1_GWF-(1,26398)  4.61846611E-02                    1_GWF-(1,14868)
         79          2         29     -0.38444634                    1_GWF-(1,26327)  4.23211070E-02                    1_GWF-(1,14869)
         80          2         30      0.35218747                    1_GWF-(1,26420)  6.45715878E-02                    1_GWF-(1,14868)
         81          2         31     -0.25368198                    1_GWF-(1,26175)  5.87885564E-02                    1_GWF-(1,14869)
         82          2         32     -0.25768583                    1_GWF-(1,26674)  8.85659960E-02                    1_GWF-(1,14868)
         83          2         33     -0.23708817                    1_GWF-(1,26350)  7.32543050E-02                    1_GWF-(1,14869)
         84          2         34     -0.19100934                    1_GWF-(1,25803)  9.50372032E-02                    1_GWF-(1,14868)
         85          2         35      0.30779882                    1_GWF-(1,26422)  6.41005174E-02                    1_GWF-(1,14869)
         86          2         36      0.25905308                    1_GWF-(1,26350)  6.66726789E-02                    1_GWF-(1,14868)
         87          2         37      0.19653510                    1_GWF-(1,26422)  3.65921404E-02                    1_GWF-(1,14869)
         88          2         38      0.19549535                    1_GWF-(1,26544)  2.75334206E-02                    1_GWF-(1,14868)
         89          2         39     -0.20461036                    1_GWF-(1,26649)  2.82581353E-02                    1_GWF-(1,14868)
         90          2         40     -0.28764558                    1_GWF-(1,26486)  5.00472680E-02                    1_GWF-(1,14869)
         91          2         41      0.22248685                    1_GWF-(1,26422)  9.34615725E-02                    1_GWF-(1,14868)
         92          2         42     -0.23381871                    1_GWF-(1,26421)     -0.10945608                    1_GWF-(1,14868)
         93          2         43     -0.35106950                    1_GWF-(1,26350)      0.13786609                    1_GWF-(1,14868)
         94          2         44     -0.21714176                    1_GWF-(1,26486)     -0.12611519                    1_GWF-(1,14868)
         95          2         45     -0.25853022                    1_GWF-(1,26420)      0.13303056                    1_GWF-(1,14868)
         96          2         46     -0.17234732                    1_GWF-(1,26421) -9.61671036E-02                    1_GWF-(1,14868)
         97          2         47     -0.24674115                    1_GWF-(1,26350)  8.32032026E-02                    1_GWF-(1,14868)
         98          2         48     -0.17437562                    1_GWF-(1,26664) -5.69126791E-02                    1_GWF-(1,14868)
         99          2         49     -0.16668257                    1_GWF-(1,26649)  5.70026304E-02                    1_GWF-(1,14868)
        100          2         50     -0.19672462                    1_GWF-(1,26623) -4.20775056E-02                    1_GWF-(1,14868)
        101          3          1     -0.23612329                    1_GWF-(1,16215)  2.58211617E-02                    1_GWF-(1,14868)
        102          3          2      0.17115878                    1_GWF-(1,26586) -5.53024984E-02                    1_GWF-(1,14868)
        103          3          3      0.24029043                    1_GWF-(1,26623)  6.29769676E-02                    1_GWF-(1,14868)
        104          3          4      0.17344663                    1_GWF-(1,26649) -4.72375908E-02                    1_GWF-(1,14868)
        105          3          5     -0.18736918                    1_GWF-(1,16130)  6.17350013E-02                    1_GWF-(1,14868)
        106          3          6      0.16330164                    1_GWF-(1,16130) -6.69695968E-02                    1_GWF-(1,14868)
        107          3          7      0.12678860                    1_GWF-(1,26198)  6.64022400E-02                    1_GWF-(1,14868)
        108          3          8     -0.15751456                    1_GWF-(1,26674) -5.13980417E-02                    1_GWF-(1,14868)
        109          3          9      0.13579936                    1_GWF-(1,16130)  5.88001611E-02                    1_GWF-(1,14868)
        110          3         10      0.12535683                    1_GWF-(1,26350) -4.26971342E-02                    1_GWF-(1,14868)
        111          3         11      0.12441957                    1_GWF-(1,26486)  3.69305627E-02                    1_GWF-(1,14868)
        112          3         12     -0.14870320                    1_GWF-(1,26422)  1.85005351E-02                    1_GWF-(1,14869)
        113          3         13     -0.10842145                    1_GWF-(1,26350)  1.30198300E-02                    1_GWF-(1,14868)
        114          3         14      0.12931345                    1_GWF-(1,26350)  4.45876790E-03                    1_GWF-(1,14867)
        115          3         15     -0.12018340                    1_GWF-(1,26350)  1.02950276E-02                    1_GWF-(1,14869)
        116          3         16     -0.12680544                    1_GWF-(1,26422)  2.25812375E-02                    1_GWF-(1,14868)
        117          3         17      0.10160765                    1_GWF-(1,26422)  2.15812611E-02                    1_GWF-(1,14869)
        118          3         18      0.11845541                    1_GWF-(1,26350)  3.48785630E-02                    1_GWF-(1,14868)
        119          3         19 -7.62470219E-02                    1_GWF-(1,26350) -3.69947005E-02                    1_GWF-(1,14868)
        120          3         20  8.63986802E-02                    1_GWF-(1,26420)  4.46666611E-02                    1_GWF-(1,14868)
        121          3         21 -8.22476812E-02                    1_GWF-(1,26420) -3.92490297E-02                    1_GWF-(1,14868)
        122          3         22 -9.19211021E-02                    1_GWF-(1,25297)  4.19960807E-02                    1_GWF-(1,14868)
        123          3         23     -0.11143916                    1_GWF-(1,25444) -3.20266974E-02                    1_GWF-(1,14868)
        124          3         24      0.12324321                    1_GWF-(1,26588)  2.79757653E-02                    1_GWF-(1,14868)
        125          3         25      0.16048635                    1_GWF-(1,26487)  8.76055828E-03                    1_GWF-(1,14869)
        126          3         26      0.19402865                    1_GWF-(1,26420)  9.26999300E-03                    1_GWF-(1,14869)
        127          3         27      0.21650962                    1_GWF-(1,26487)  2.22199033E-02                    1_GWF-(1,14868)
        128          3         28     -0.13926919                    1_GWF-(1,26487)  1.68993307E-02                    1_GWF-(1,14869)
        129          3         29     -0.16660425                    1_GWF-(1,26486)  1.62466936E-02                    1_GWF-(1,14868)
        130          3         30     -0.15766763                    1_GWF-(1,26588)  3.90045160E-03                    1_GWF-(1,14869)
        131          3         31     -0.15361891                    1_GWF-(1,26543)  5.06922645E-03                    1_GWF-(1,14869)
        132          3         32     -0.15057970                    1_GWF-(1,26588)  1.18014146E-02                    1_GWF-(1,14868)
        133          3         33      0.12314355                    1_GWF-(1,26588)  9.18366083E-03                    1_GWF-(1,14869)
        134          3         34  9.27785746E-02                    1_GWF-(1,26543)  1.02540695E-02                    1_GWF-(1,14868)
        135          3         35     -0.11457779                    1_GWF-(1,26665)  2.94648629E-03                    1_GWF-(1,14869)
        136          3         36      0.10401010                    1_GWF-(1,26665)  2.72681298E-03                    1_GWF-(1,14869)
        137          3         37      0.12181242                    1_GWF-(1,26666)  5.73619039E-03                    1_GWF-(1,14868)
        138          3         38      0.12576358                    1_GWF-(1,26622) -4.64090024E-03                    1_GWF-(1,14868)
        139          3         39  9.15775323E-02                    1_GWF-(1,26217)  3.99214567E-03                    1_GWF-(1,14868)
        140          3         40     -0.12896110                    1_GWF-(1,26665)  1.47641924E-03                    1_GWF-(1,14782)
        141          3         41      0.12668529                    1_GWF-(1,26665) -2.77587605E-03                    1_GWF-(1,14868)
        142          3         42     -0.14867208                    1_GWF-(1,26665)  4.76449726E-03                    1_GWF-(1,14868)
        143          3         43     -0.13371268                    1_GWF-(1,26666) -4.97812581E-03                    1_GWF-(1,14868)
        144          3         44      0.12454971                    1_GWF-(1,26543)  5.02827404E-03                    1_GWF-(1,14868)
        145          3         45      0.14482763                    1_GWF-(1,26649)  3.44973705E-03                    1_GWF-(1,14782)
        146          3         46      0.15040507                    1_GWF-(1,26648)  5.24032370E-03                    1_GWF-(1,14867)
        147          3         47  9.05803602E-02                    1_GWF-(1,26664) -4.56061739E-03                    1_GWF-(1,14867)
        148          3         48  9.20715722E-02                    1_GWF-(1,26217)  3.93259394E-03                    1_GWF-(1,14867)
        149          3         49     -0.10486972                    1_GWF-(1,26648) -4.94779455E-03                    1_GWF-(1,14867)
        150          3         50     -0.10356430                    1_GWF-(1,26218)  4.04801108E-03                    1_GWF-(1,14867)
        151          4          1 -6.68573047E-02                    1_GWF-(1,26217) -3.22368228E-03                    1_GWF-(1,14867)
        152          4          2 -6.78976936E-02                    1_GWF-(1,26218)  3.01244645E-03                    1_GWF-(1,14867)
        153          4          3 -7.35481872E-02                    1_GWF-(1,26217)  2.31615403E-03                    1_GWF-(1,14782)
        154          4          4 -7.38071249E-02                    1_GWF-(1,26218)  2.86476768E-03                    1_GWF-(1,14867)
        155          4          5 -5.26621400E-02                    1_GWF-(1,26422)  1.85751455E-03                    1_GWF-(1,14782)
        156          4          6 -4.79594139E-02                    1_GWF-(1,26218)  1.84644162E-03                    1_GWF-(1,14868)
        157          4          7 -3.59717678E-02                    1_GWF-(1,26485) -1.47743498E-03                    1_GWF-(1,14868)
        158          4          8 -4.77815807E-02                    1_GWF-(1,26665)  1.74084416E-03                    1_GWF-(1,14868)
        159          4          9 -5.85615681E-02                    1_GWF-(1,26666) -1.53256055E-03                    1_GWF-(1,14868)
        160          4         10 -5.81115424E-02                    1_GWF-(1,26665) -1.01216366E-03                    1_GWF-(1,14867)
        161          4         11  5.89122350E-02                    1_GWF-(1,26665)  5.48556248E-04                    1_GWF-(1,10962)
        162          4         12  3.52798058E-02                    1_GWF-(1,26622) -1.02117468E-03                    1_GWF-(1,14868)
        163          4         13  3.60145920E-02                    1_GWF-(1,26623)  1.59943222E-03                    1_GWF-(1,14868)
        164          4         14  4.98043813E-02                    1_GWF-(1,26622)  1.16390289E-03                    1_GWF-(1,14869)
        165          4         15  4.28238164E-02                    1_GWF-(1,26623)  7.36828420E-04                    1_GWF-(1,14868)
        166          4         16  3.41129001E-02                    1_GWF-(1,26665)  9.39386154E-04                    1_GWF-(1,14868)
        167          4         17  2.49841194E-02                    1_GWF-(1,26588) -1.22498074E-03                    1_GWF-(1,14868)
        168          4         18  2.03155113E-02                    1_GWF-(1,26543)  1.42778117E-03                    1_GWF-(1,14868)
        169          4         19 -2.32949649E-02                    1_GWF-(1,26543) -1.43501364E-03                    1_GWF-(1,14868)
        170          4         20 -3.25656944E-02                    1_GWF-(1,26588)  6.27263835E-04                    1_GWF-(1,14868)
        171          4         21 -3.16916213E-02                    1_GWF-(1,26543)  8.90181398E-04                    1_GWF-(1,14868)
        172          4         22 -2.35992826E-02                    1_GWF-(1,26588) -1.56588486E-03                    1_GWF-(1,14868)
        173          4         23 -2.93178598E-02                    1_GWF-(1,26486)  2.40391501E-03                    1_GWF-(1,14868)
        174          4         24 -3.35495642E-02                    1_GWF-(1,26487)  1.72150439E-03                    1_GWF-(1,14869)
        175          4         25 -2.85567847E-02                    1_GWF-(1,26420)  7.96215288E-04                    1_GWF-(1,14868)
        176          4         26 -2.44975627E-02                    1_GWF-(1,26487)  1.36416083E-03                    1_GWF-(1,14868)
        177          4         27 -1.78832878E-02                    1_GWF-(1,26420) -2.42975585E-03                    1_GWF-(1,14868)
        178          4         28 -1.22711282E-02                    1_GWF-(1,26421)  3.81283816E-03                    1_GWF-(1,14868)
        179          4         29  1.02683363E-02                    1_GWF-(1,26543) -4.39150998E-03                    1_GWF-(1,14868)
        180          4         30  1.20819601E-02                    1_GWF-(1,26420)  4.95989011E-03                    1_GWF-(1,14868)
        181          4         31  1.78582788E-02                    1_GWF-(1,26422) -4.38736893E-03                    1_GWF-(1,14868)
        182          4         32  1.84398230E-02                    1_GWF-(1,26350)  5.15586839E-03                    1_GWF-(1,14868)
        183          4         33  1.86447006E-02                    1_GWF-(1,26421) -3.62980343E-03                    1_GWF-(1,14868)
        184          4         34  1.85241090E-02                    1_GWF-(1,26350)  3.86924322E-03                    1_GWF-(1,14868)
        185          4         35  1.91110142E-02                    1_GWF-(1,26422) -1.97162276E-03                    1_GWF-(1,14868)
        186          4         36  1.09233105E-02                    1_GWF-(1,26350)  1.66989683E-03                    1_GWF-(1,14867)
        187          4         37 -1.64569962E-02                    1_GWF-(1,26350)  1.43675620E-03                    1_GWF-(1,14782)
        188          4         38 -1.45357757E-02                    1_GWF-(1,26422)  1.86791008E-03                    1_GWF-(1,14867)
        189          4         39 -1.35643388E-02                    1_GWF-(1,26544)  2.06999692E-03                    1_GWF-(1,14868)
        190          4         40 -1.42812765E-02                    1_GWF-(1,26486)  2.08320732E-03                    1_GWF-(1,14869)
        191          4         41 -1.12138349E-02                    1_GWF-(1,26350)  2.87891094E-03                    1_GWF-(1,14868)
        192          4         42 -8.71362187E-03                    1_GWF-(1,26422) -2.51037732E-03                    1_GWF-(1,14868)
        193          4         43 -8.10225307E-03                    1_GWF-(1,26544)  3.08863825E-03                    1_GWF-(1,14868)
        194          4         44 -6.33273757E-03                    1_GWF-(1,26486) -2.60995298E-03                    1_GWF-(1,14868)
        195          4         45 -5.49689666E-03                    1_GWF-(1,16130)  2.96733382E-03                    1_GWF-(1,14868)
        196          4         46  5.99089467E-03                    1_GWF-(1,16130) -2.77245911E-03                    1_GWF-(1,14868)
        197          4         47  7.51011278E-03                    1_GWF-(1,26672)  3.25182189E-03                    1_GWF-(1,14868)
        198          4         48 -5.82707636E-03                    1_GWF-(1,26623) -3.08721054E-03                    1_GWF-(1,14868)
        199          4         49  7.19657143E-03                    1_GWF-(1,16130)  2.28450255E-03                    1_GWF-(1,14868)
        200          4         50  7.12499992E-03                    1_GWF-(1,26326) -2.34040355E-03                    1_GWF-(1,14868)
        201          5          1 -9.05528274E-03                    1_GWF-(1,11437)  1.78992110E-03                    1_GWF-(1,14868)
        202          5          2 -5.19819274E-03                    1_GWF-(1,11442) -2.28921960E-03                    1_GWF-(1,14868)
        203          5          3 -5.16081837E-03                    1_GWF-(1,26673)  2.31084021E-03                    1_GWF-(1,14868)
        204          5          4 -5.26062327E-03                    1_GWF-(1,26672) -2.24025107E-03                    1_GWF-(1,14868)
        205          5          5  4.64774088E-03                    1_GWF-(1,26422)  2.26195951E-03                    1_GWF-(1,14868)
        206          5          6 -3.15699093E-03                    1_GWF-(1,20231) -2.10688910E-03                    1_GWF-(1,14868)
        207          5          7 -4.08073684E-03                    1_GWF-(1,26350)  2.42052110E-03                    1_GWF-(1,14868)
        208          5          8 -5.09742227E-03                    1_GWF-(1,26422) -2.10105519E-03                    1_GWF-(1,14868)
        209          5          9  3.49138307E-03                    1_GWF-(1,26422)  2.21184032E-03                    1_GWF-(1,14868)
        210          5         10  4.70064263E-03                    1_GWF-(1,26350) -1.55757593E-03                    1_GWF-(1,14868)
        211          5         11  6.49695346E-03                    1_GWF-(1,26486)  1.54758728E-03                    1_GWF-(1,14868)
        212          5         12 -6.13741554E-03                    1_GWF-(1,26422)  8.68312104E-04                    1_GWF-(1,14869)
        213          5         13  7.18132316E-03                    1_GWF-(1,26422)  5.63549610E-04                    1_GWF-(1,14782)
        214          5         14 -7.76463172E-03                    1_GWF-(1,26486)  5.44140060E-04                    1_GWF-(1,14868)
        215          5         15 -7.16583281E-03                    1_GWF-(1,26544)  8.06755153E-04                    1_GWF-(1,14869)
        216          5         16 -8.16688904E-03                    1_GWF-(1,26486)  1.16728899E-03                    1_GWF-(1,14868)
        217          5         17 -8.28689936E-03                    1_GWF-(1,26588)  5.82189926E-04                    1_GWF-(1,14867)
        218          5         18 -7.30158534E-03                    1_GWF-(1,26420)  5.40789484E-04                    1_GWF-(1,14869)
        219          5         19 -8.57093278E-03                    1_GWF-(1,26422)  1.40942985E-03                    1_GWF-(1,14868)
        220          5         20 -8.98459411E-03                    1_GWF-(1,26350) -1.68786192E-03                    1_GWF-(1,14868)
        221          5         21 -6.09877502E-03                    1_GWF-(1,26422)  2.29941655E-03                    1_GWF-(1,14868)
        222          5         22 -4.29516564E-03                    1_GWF-(1,25442) -2.23191786E-03                    1_GWF-(1,14868)
        223          5         23 -4.35444791E-03                    1_GWF-(1,25443)  2.18802071E-03                    1_GWF-(1,14868)
        224          5         24  5.82459262E-03                    1_GWF-(1,26486) -1.34739497E-03                    1_GWF-(1,14868)
        225          5         25  6.03886939E-03                    1_GWF-(1,26487)  5.71221634E-04                    1_GWF-(1,14868)
        226          5         26 -5.74912705E-03                    1_GWF-(1,26622)  7.82230822E-04                    1_GWF-(1,14868)
        227          5         27 -6.50078163E-03                    1_GWF-(1,26649) -1.20525857E-03                    1_GWF-(1,14868)
        228          5         28  5.24312127E-03                    1_GWF-(1,26420)  1.52786560E-03                    1_GWF-(1,14868)
        229          5         29 -3.36089552E-03                    1_GWF-(1,22711) -1.15654198E-03                    1_GWF-(1,14868)
        230          5         30 -3.76420845E-03                    1_GWF-(1,22718)  1.05486831E-03                    1_GWF-(1,14868)
        231          5         31  3.27784464E-03                    1_GWF-(1,26674) -6.34587017E-04                    1_GWF-(1,14868)
        232          5         32 -3.82651423E-03                    1_GWF-(1,26623)  5.03714632E-04                    1_GWF-(1,14868)
        233          5         33  3.93457103E-03                    1_GWF-(1,26647) -3.44140151E-04                    1_GWF-(1,14867)
        234          5         34  5.45161712E-03                    1_GWF-(1,26622)  5.45440808E-04                    1_GWF-(1,14867)
        235          5         35 -7.56681565E-03                    1_GWF-(1,26665)  3.90320105E-04                    1_GWF-(1,14782)
        236          5         36 -5.75319557E-03                    1_GWF-(1,26666)  3.30324634E-04                    1_GWF-(1,14869)
        237          5         37 -3.95761865E-03                    1_GWF-(1,26622)  4.29821714E-04                    1_GWF-(1,14868)
        238          5         38 -3.63438143E-03                    1_GWF-(1,26589) -3.93167933E-04                    1_GWF-(1,14867)
        239          5         39 -4.80631628E-03                    1_GWF-(1,26588)  6.29338604E-04                    1_GWF-(1,14867)
        240          5         40 -4.16691780E-03                    1_GWF-(1,26589) -7.15695985E-04                    1_GWF-(1,14867)
        241          5         41  5.30968913E-03                    1_GWF-(1,26665)  5.81070806E-04                    1_GWF-(1,14867)
        242          5         42  7.36059310E-03                    1_GWF-(1,26588)  1.83091189E-04                    1_GWF-(1,14868)
        243          5         43  6.19339771E-03                    1_GWF-(1,26589) -4.27406465E-04                    1_GWF-(1,14867)
        244          5         44  5.08455547E-03                    1_GWF-(1,26588)  7.52360366E-04                    1_GWF-(1,14867)
        245          5         45  3.50222810E-03                    1_GWF-(1,26665) -8.68211412E-04                    1_GWF-(1,14867)
        246          5         46  2.72260316E-03                    1_GWF-(1,26666)  9.74044014E-04                    1_GWF-(1,14867)
        247          5         47  2.91145242E-03                    1_GWF-(1,26218) -8.41554774E-04                    1_GWF-(1,14867)
        248          5         48  3.56959606E-03                    1_GWF-(1,26217)  8.25861833E-04                    1_GWF-(1,14867)
        249          5         49  2.81084333E-03                    1_GWF-(1,26218) -7.43293960E-04                    1_GWF-(1,14867)
        250          5         50 -2.34299501E-03                    1_GWF-(1,26218)  6.79247570E-04                    1_GWF-(1,14867)
        251          6          1 -2.32719280E-03                    1_GWF-(1,26217) -5.88009057E-04                    1_GWF-(1,14867)
        252          6          2 -2.74009394E-03                    1_GWF-(1,26218)  6.02852988E-04                    1_GWF-(1,14867)
        253          6          3 -3.31352531E-03                    1_GWF-(1,26217) -5.07325407E-04                    1_GWF-(1,14867)
        254          6          4 -3.15345413E-03                    1_GWF-(1,26218)  5.37746564E-04                    1_GWF-(1,14867)
        255          6          5 -2.57988004E-03                    1_GWF-(1,26422) -3.90735747E-04                    1_GWF-(1,14867)
        256          6          6 -2.11933123E-03                    1_GWF-(1,26218)  3.35928625E-04                    1_GWF-(1,14867)
        257          6          7 -2.01359848E-03                    1_GWF-(1,26486)  1.30306378E-04                    1_GWF-(1,14782)
        258          6          8 -2.75318635E-03                    1_GWF-(1,26665)  1.00177066E-04                    1_GWF-(1,14868)
        259          6          9 -3.03299155E-03                    1_GWF-(1,26588)  2.38976133E-04                    1_GWF-(1,14867)
        260          6         10 -2.04926647E-03                    1_GWF-(1,26665) -2.01769696E-04                    1_GWF-(1,14867)
        261          6         11  1.88438850E-03                    1_GWF-(1,26543)  1.34118225E-04                    1_GWF-(1,14867)
        262          6         12  2.16005826E-03                    1_GWF-(1,26588)  8.41458564E-05                    1_GWF-(1,14869)
        263          6         13  1.70893662E-03                    1_GWF-(1,26589)  1.29386328E-04                    1_GWF-(1,14868)
        264          6         14  1.63394306E-03                    1_GWF-(1,26588)  1.42983895E-04                    1_GWF-(1,14867)
        265          6         15  1.74343919E-03                    1_GWF-(1,26649)  1.50719443E-04                    1_GWF-(1,14782)
        266          6         16  2.18332658E-03                    1_GWF-(1,26665)  1.16137797E-04                    1_GWF-(1,14867)
        267          6         17  1.45677507E-03                    1_GWF-(1,26543)  4.56352895E-05                    1_GWF-(1,14869)
        268          6         18 -9.00792961E-04                    1_GWF-(1,26647)  9.06295966E-05                    1_GWF-(1,14868)
        269          6         19  8.67573092E-04                    1_GWF-(1,24661)  1.30180159E-04                    1_GWF-(1,14867)
        270          6         20  9.28511204E-04                    1_GWF-(1,24664)  1.83597089E-04                    1_GWF-(1,14868)
        271          6         21 -9.86220784E-04                    1_GWF-(1,26649)  2.19644324E-04                    1_GWF-(1,14867)
        272          6         22 -1.12518586E-03                    1_GWF-(1,26486)  1.83790240E-04                    1_GWF-(1,14868)
        273          6         23 -1.23617498E-03                    1_GWF-(1,26649)  6.97241603E-05                    1_GWF-(1,14869)
        274          6         24 -1.36920560E-03                    1_GWF-(1,26622)  1.16060591E-04                    1_GWF-(1,14867)
        275          6         25 -1.14699399E-03                    1_GWF-(1,26623)  1.79717373E-04                    1_GWF-(1,14868)
        276          6         26 -8.52435292E-04                    1_GWF-(1,26217)  2.10893105E-04                    1_GWF-(1,14867)
        277          6         27 -9.11439016E-04                    1_GWF-(1,26421)  2.80344235E-04                    1_GWF-(1,14868)
        278          6         28 -8.35897808E-04                    1_GWF-(1,26420) -2.57379206E-04                    1_GWF-(1,14868)
        279          6         29  9.47464766E-04                    1_GWF-(1,26420)  2.61404274E-04                    1_GWF-(1,14868)
        280          6         30  1.07400516E-03                    1_GWF-(1,26422) -1.50419648E-04                    1_GWF-(1,14868)
        281          6         31  1.24384308E-03                    1_GWF-(1,26486)  1.02669202E-04                    1_GWF-(1,14867)
        282          6         32  1.45858569E-03                    1_GWF-(1,26487)  1.54292977E-04                    1_GWF-(1,14868)
        283          6         33  1.19995345E-03                    1_GWF-(1,26486)  1.73736095E-04                    1_GWF-(1,14869)
        284          6         34  8.38220421E-04                    1_GWF-(1,26487)  2.27310507E-04                    1_GWF-(1,14868)
        285          6         35  8.45300709E-04                    1_GWF-(1,26422) -1.33023773E-04                    1_GWF-(1,14868)
        286          6         36 -6.67431579E-04                    1_GWF-(1,26422)  1.33667098E-04                    1_GWF-(1,14868)
        287          6         37 -1.03758194E-03                    1_GWF-(1,26350)  1.12720953E-04                    1_GWF-(1,14782)
        288          6         38 -9.37005569E-04                    1_GWF-(1,26422)  1.48448095E-04                    1_GWF-(1,14867)
        289          6         39 -6.34881813E-04                    1_GWF-(1,26544)  1.04975485E-04                    1_GWF-(1,14782)
        290          6         40 -5.90829075E-04                    1_GWF-(1,26486)  1.07931251E-04                    1_GWF-(1,14869)
        291          6         41 -5.52782365E-04                    1_GWF-(1,26350)  1.61796692E-04                    1_GWF-(1,14868)
        292          6         42 -3.86719458E-04                    1_GWF-(1,26422) -1.64744816E-04                    1_GWF-(1,14868)
        293          6         43  4.29605070E-04                    1_GWF-(1,26422)  2.20255201E-04                    1_GWF-(1,14868)
        294          6         44  4.60618647E-04                    1_GWF-(1,26350) -1.86195028E-04                    1_GWF-(1,14868)
        295          6         45  2.78017110E-04                    1_GWF-(1,26486)  2.11381710E-04                    1_GWF-(1,14868)
        296          6         46 -2.56982888E-04                    1_GWF-(1,25786) -1.94067998E-04                    1_GWF-(1,14868)
        297          6         47 -3.08386291E-04                    1_GWF-(1,25787)  1.84401312E-04                    1_GWF-(1,14868)
        298          6         48 -2.96109571E-04                    1_GWF-(1,25756) -1.58371620E-04                    1_GWF-(1,14868)
        299          6         49 -2.76758023E-04                    1_GWF-(1,25727)  1.21561474E-04                    1_GWF-(1,14868)
        300          6         50  2.79696391E-04                    1_GWF-(1,26326) -1.21641324E-04                    1_GWF-(1,14868)
        301          7          1 -2.77214539E-04                    1_GWF-(1,11437)  1.12368777E-04                    1_GWF-(1,14868)
        302          7          2 -2.33502587E-04                    1_GWF-(1,16130) -1.35557804E-04                    1_GWF-(1,14868)
        303          7          3 -2.30239152E-04                    1_GWF-(1,26397)  1.44786079E-04                    1_GWF-(1,14868)
        304          7          4  2.96650347E-04                    1_GWF-(1,26217) -1.58427711E-04                    1_GWF-(1,14868)
        305          7          5  2.53794167E-04                    1_GWF-(1,26422)  1.70497063E-04                    1_GWF-(1,14868)
        306          7          6 -2.70035374E-04                    1_GWF-(1,26486) -1.58391745E-04                    1_GWF-(1,14868)
        307          7          7 -3.50670226E-04                    1_GWF-(1,26350)  1.74582353E-04                    1_GWF-(1,14868)
        308          7          8 -3.98807339E-04                    1_GWF-(1,26422) -1.34185565E-04                    1_GWF-(1,14868)
        309          7          9  3.07443494E-04                    1_GWF-(1,26588)  1.22354253E-04                    1_GWF-(1,14868)
        310          7         10  2.65474572E-04                    1_GWF-(1,26350)  7.18507334E-05                    1_GWF-(1,14869)
        311          7         11  3.56436018E-04                    1_GWF-(1,26588)  5.93210089E-05                    1_GWF-(1,14782)
        312          7         12 -4.74821365E-04                    1_GWF-(1,26588)  5.85561309E-05                    1_GWF-(1,14867)
        313          7         13  5.65884977E-04                    1_GWF-(1,26588)  5.81027868E-05                    1_GWF-(1,14869)
        314          7         14 -3.84669715E-04                    1_GWF-(1,26588)  6.85733298E-05                    1_GWF-(1,14868)
        315          7         15 -4.06082767E-04                    1_GWF-(1,26486)  7.90064748E-05                    1_GWF-(1,14867)
        316          7         16 -3.70611305E-04                    1_GWF-(1,26544)  6.65649971E-05                    1_GWF-(1,14782)
        317          7         17 -4.10708904E-04                    1_GWF-(1,26486)  7.10343298E-05                    1_GWF-(1,14868)
        318          7         18 -4.37653901E-04                    1_GWF-(1,26589)  6.82914528E-05                    1_GWF-(1,14869)
        319          7         19 -4.61551507E-04                    1_GWF-(1,26588)  7.22271348E-05                    1_GWF-(1,14868)
        320          7         20 -4.56497438E-04                    1_GWF-(1,26422)  6.59633387E-05                    1_GWF-(1,14867)
        321          7         21 -4.53091354E-04                    1_GWF-(1,26420) -5.27788072E-05                    1_GWF-(1,14867)
        322          7         22 -4.66470312E-04                    1_GWF-(1,26422)  7.58582984E-05                    1_GWF-(1,14868)
        323          7         23 -3.76079748E-04                    1_GWF-(1,26350) -8.88941952E-05                    1_GWF-(1,14868)
        324          7         24  3.19098545E-04                    1_GWF-(1,26420)  1.03223597E-04                    1_GWF-(1,14868)
        325          7         25  3.84578488E-04                    1_GWF-(1,26486) -8.24180062E-05                    1_GWF-(1,14868)
        326          7         26  3.09197105E-04                    1_GWF-(1,26487)  6.09389004E-05                    1_GWF-(1,14868)
        327          7         27  3.56390483E-04                    1_GWF-(1,26486)  2.82418487E-05                    1_GWF-(1,14867)
        328          7         28  4.20381696E-04                    1_GWF-(1,26487) -5.26449688E-05                    1_GWF-(1,14868)
        329          7         29  3.58381076E-04                    1_GWF-(1,26420)  9.16713020E-05                    1_GWF-(1,14868)
        330          7         30 -2.95756139E-04                    1_GWF-(1,26420) -8.57962922E-05                    1_GWF-(1,14868)
        331          7         31 -2.16501503E-04                    1_GWF-(1,26421)  8.03659008E-05                    1_GWF-(1,14868)
        332          7         32 -1.99311720E-04                    1_GWF-(1,24661) -6.23022789E-05                    1_GWF-(1,14868)
        333          7         33 -1.96473985E-04                    1_GWF-(1,26218)  5.49862643E-05                    1_GWF-(1,14868)
        334          7         34 -1.80338369E-04                    1_GWF-(1,26217)  4.31307928E-05                    1_GWF-(1,14867)
        335          7         35 -2.28878831E-04                    1_GWF-(1,26175)  4.12706647E-05                    1_GWF-(1,14868)
        336          7         36 -2.38705877E-04                    1_GWF-(1,26649)  2.31292524E-05                    1_GWF-(1,14869)
        337          7         37 -1.62786042E-04                    1_GWF-(1,26390)  2.32372539E-05                    1_GWF-(1,14868)
        338          7         38  2.45217733E-04                    1_GWF-(1,26674)  1.48095993E-05                    1_GWF-(1,14782)
        339          7         39 -2.62843643E-04                    1_GWF-(1,26665)  2.86835742E-05                    1_GWF-(1,14867)
        340          7         40 -3.14948483E-04                    1_GWF-(1,26666) -2.59674986E-05                    1_GWF-(1,14867)
        341          7         41 -3.43552132E-04                    1_GWF-(1,26665)  1.87127659E-05                    1_GWF-(1,14867)
        342          7         42  2.89709337E-04                    1_GWF-(1,26665)  1.88799944E-05                    1_GWF-(1,14868)
        343          7         43  2.85410940E-04                    1_GWF-(1,26623)  1.92126450E-05                    1_GWF-(1,14782)
        344          7         44  2.10692934E-04                    1_GWF-(1,26542)  3.52554020E-05                    1_GWF-(1,14867)
        345          7         45  1.63807644E-04                    1_GWF-(1,26543) -3.69054363E-05                    1_GWF-(1,14867)
        346          7         46  1.91327789E-04                    1_GWF-(1,26422)  4.68664078E-05                    1_GWF-(1,14867)
        347          7         47  2.13611042E-04                    1_GWF-(1,26218) -4.12948511E-05                    1_GWF-(1,14867)
        348          7         48  2.52318617E-04                    1_GWF-(1,26217)  4.61311692E-05                    1_GWF-(1,14867)
        349          7         49  1.96569237E-04                    1_GWF-(1,26218) -4.21335440E-05                    1_GWF-(1,14867)
        350          7         50  1.42126570E-04                    1_GWF-(1,26217)  4.44342318E-05                    1_GWF-(1,14867)
        351          8          1 -1.31274606E-04                    1_GWF-(1,26217) -3.93017633E-05                    1_GWF-(1,14867)
        352          8          2 -1.64637584E-04                    1_GWF-(1,26218)  4.03492289E-05                    1_GWF-(1,14867)
        353          8          3 -2.00072262E-04                    1_GWF-(1,26217) -3.41517940E-05                    1_GWF-(1,14867)
        354          8          4 -1.76740118E-04                    1_GWF-(1,26218)  3.58575643E-05                    1_GWF-(1,14867)
        355          8          5 -1.57878548E-04                    1_GWF-(1,26420) -2.50994267E-05                    1_GWF-(1,14867)
        356          8          6 -1.67346101E-04                    1_GWF-(1,26487)  1.76174483E-05                    1_GWF-(1,14867)
        357          8          7 -2.01465833E-04                    1_GWF-(1,26486)  4.57307012E-06                    1_GWF-(1,10962)
        358          8          8 -1.80371084E-04                    1_GWF-(1,26623) -1.53242292E-05                    1_GWF-(1,14867)
        359          8          9  1.74448979E-04                    1_GWF-(1,26487)  2.03299373E-05                    1_GWF-(1,14867)
        360          8         10  1.55843771E-04                    1_GWF-(1,26486) -1.12827697E-05                    1_GWF-(1,14867)
        361          8         11  9.49906729E-05                    1_GWF-(1,26588)  6.64334827E-06                    1_GWF-(1,14868)
        362          8         12  1.10776158E-04                    1_GWF-(1,26543)  5.70909847E-06                    1_GWF-(1,14869)
        363          8         13  1.11757660E-04                    1_GWF-(1,26665)  7.30830321E-06                    1_GWF-(1,14782)
        364          8         14 -1.23714143E-04                    1_GWF-(1,26665)  1.02345571E-05                    1_GWF-(1,14867)
        365          8         15  1.19002970E-04                    1_GWF-(1,26665)  6.61811934E-06                    1_GWF-(1,14782)
        366          8         16  1.18834874E-04                    1_GWF-(1,26666)  6.46850204E-06                    1_GWF-(1,14868)
        367          8         17  7.63386733E-05                    1_GWF-(1,26665)  5.84234872E-06                    1_GWF-(1,14869)
        368          8         18 -7.20384834E-05                    1_GWF-(1,26665)  7.88828336E-06                    1_GWF-(1,14868)
        369          8         19  5.91647235E-05                    1_GWF-(1,26623)  8.77073283E-06                    1_GWF-(1,14867)
        370          8         20 -8.15392201E-05                    1_GWF-(1,26649)  5.90178525E-06                    1_GWF-(1,14782)
        371          8         21 -1.19417843E-04                    1_GWF-(1,26622)  3.01442077E-06                    1_GWF-(1,14868)
        372          8         22 -9.50958618E-05                    1_GWF-(1,26649)  8.04287884E-06                    1_GWF-(1,14867)
        373          8         23 -6.08108769E-05                    1_GWF-(1,26487)  1.09751636E-05                    1_GWF-(1,14868)
        374          8         24 -6.06228016E-05                    1_GWF-(1,26420)  1.29583680E-05                    1_GWF-(1,14867)
        375          8         25 -7.11757507E-05                    1_GWF-(1,26218)  1.41779224E-05                    1_GWF-(1,14868)
        376          8         26 -6.10712368E-05                    1_GWF-(1,26420) -1.32411667E-05                    1_GWF-(1,14868)
        377          8         27 -6.92670432E-05                    1_GWF-(1,26421)  1.35701265E-05                    1_GWF-(1,14868)
        378          8         28  7.68295892E-05                    1_GWF-(1,26589)  4.82119817E-06                    1_GWF-(1,14869)
        379          8         29  9.16402564E-05                    1_GWF-(1,26588)  7.69051766E-06                    1_GWF-(1,14867)
        380          8         30 -7.67038515E-05                    1_GWF-(1,26588)  1.17274818E-05                    1_GWF-(1,14868)
        381          8         31  7.27320364E-05                    1_GWF-(1,26486)  1.34430227E-05                    1_GWF-(1,14869)
        382          8         32  5.84501426E-05                    1_GWF-(1,26350)  1.80672821E-05                    1_GWF-(1,14868)
        383          8         33  6.30424461E-05                    1_GWF-(1,26422)  1.29373979E-05                    1_GWF-(1,14869)
        384          8         34  5.35728632E-05                    1_GWF-(1,26350)  1.47118689E-05                    1_GWF-(1,14868)
        385          8         35  5.11106311E-05                    1_GWF-(1,26422) -8.51262215E-06                    1_GWF-(1,14868)
        386          8         36 -5.07878550E-05                    1_GWF-(1,26422)  8.01700797E-06                    1_GWF-(1,14868)
        387          8         37 -7.05787415E-05                    1_GWF-(1,26350)  6.84622916E-06                    1_GWF-(1,14782)
        388          8         38 -6.22726118E-05                    1_GWF-(1,26422)  8.93980085E-06                    1_GWF-(1,14867)
        389          8         39 -3.79486576E-05                    1_GWF-(1,26544)  6.40872611E-06                    1_GWF-(1,14782)
        390          8         40 -3.38202986E-05                    1_GWF-(1,26486)  6.93122445E-06                    1_GWF-(1,14869)
        391          8         41 -2.99227819E-05                    1_GWF-(1,26350)  1.04612920E-05                    1_GWF-(1,14868)
        392          8         42 -2.29298337E-05                    1_GWF-(1,26648) -1.10964515E-05                    1_GWF-(1,14868)
        393          8         43  3.18943985E-05                    1_GWF-(1,26422)  1.40738828E-05                    1_GWF-(1,14868)
        394          8         44  3.04726696E-05                    1_GWF-(1,26350) -1.18779425E-05                    1_GWF-(1,14868)
        395          8         45  2.85774982E-05                    1_GWF-(1,26486)  1.15517172E-05                    1_GWF-(1,14868)
        396          8         46  2.93010935E-05                    1_GWF-(1,26487) -6.85219413E-06                    1_GWF-(1,14868)
        397          8         47  3.72894853E-05                    1_GWF-(1,26622)  1.54097948E-06                    1_GWF-(1,14867)
        398          8         48  3.57538831E-05                    1_GWF-(1,26588)  7.63510573E-06                    1_GWF-(1,14868)
        399          8         49  3.22300432E-05                    1_GWF-(1,26589) -1.07988025E-05                    1_GWF-(1,14868)
        400          8         50  2.46594462E-05                    1_GWF-(1,26623)  1.12354549E-05                    1_GWF-(1,14868)
        401          9          1 -2.00286660E-05                    1_GWF-(1,26623) -1.55685806E-05                    1_GWF-(1,14868)
        402          9          2 -2.53264792E-05                    1_GWF-(1,26589)  9.51875768E-06                    1_GWF-(1,14868)
        403          9          3 -2.79872231E-05                    1_GWF-(1,26588) -1.79471783E-06                    1_GWF-(1,14868)
        404          9          4 -3.35266257E-05                    1_GWF-(1,26622) -6.07915028E-06                    1_GWF-(1,14868)
        405          9          5 -2.73043073E-05                    1_GWF-(1,26544)  8.69004650E-06                    1_GWF-(1,14868)
        406          9          6 -2.81836200E-05                    1_GWF-(1,26486) -8.17553330E-06                    1_GWF-(1,14868)
        407          9          7 -2.07090744E-05                    1_GWF-(1,26350)  1.11898980E-05                    1_GWF-(1,14868)
        408          9          8 -2.64834129E-05                    1_GWF-(1,26422) -1.01179662E-05                    1_GWF-(1,14868)
        409          9          9 -1.80467806E-05                    1_GWF-(1,26350)  9.19356648E-06                    1_GWF-(1,14868)
        410          9         10  1.67763573E-05                    1_GWF-(1,26350)  5.48799421E-06                    1_GWF-(1,14869)
        411          9         11  2.16721446E-05                    1_GWF-(1,26486)  4.54093006E-06                    1_GWF-(1,14868)
        412          9         12  2.48650219E-05                    1_GWF-(1,26544)  5.79492836E-06                    1_GWF-(1,14867)
        413          9         13  3.80590595E-05                    1_GWF-(1,26422)  4.63513076E-06                    1_GWF-(1,14782)
        414          9         14  4.50706322E-05                    1_GWF-(1,26350)  5.15032127E-06                    1_GWF-(1,14867)
        415          9         15  3.25545230E-05                    1_GWF-(1,26422) -4.51153760E-06                    1_GWF-(1,14868)
        416          9         16 -2.84892788E-05                    1_GWF-(1,26422)  7.64119091E-06                    1_GWF-(1,14868)
        417          9         17 -2.41191863E-05                    1_GWF-(1,26350)  6.15075170E-06                    1_GWF-(1,14869)
        418          9         18 -3.00376661E-05                    1_GWF-(1,26623)  6.66020042E-06                    1_GWF-(1,14868)
        419          9         19 -2.92123319E-05                    1_GWF-(1,26622)  4.27945883E-06                    1_GWF-(1,14867)
        420          9         20  4.24250060E-05                    1_GWF-(1,26622) -2.29285230E-06                    1_GWF-(1,14868)
        421          9         21  3.56413461E-05                    1_GWF-(1,26649)  5.95032346E-06                    1_GWF-(1,14868)
        422          9         22 -3.26021088E-05                    1_GWF-(1,26420) -5.45068214E-06                    1_GWF-(1,14868)
        423          9         23  3.24491297E-05                    1_GWF-(1,26665)  4.28011960E-06                    1_GWF-(1,14868)
        424          9         24  3.06421771E-05                    1_GWF-(1,26487)  3.08213788E-06                    1_GWF-(1,14867)
        425          9         25  2.36337030E-05                    1_GWF-(1,26665) -2.09471261E-06                    1_GWF-(1,14868)
        426          9         26 -2.29161291E-05                    1_GWF-(1,26665)  4.97662103E-06                    1_GWF-(1,14868)
        427          9         27 -1.79522288E-05                    1_GWF-(1,26666) -4.96802500E-06                    1_GWF-(1,14868)
        428          9         28 -1.65147748E-05                    1_GWF-(1,26588)  5.79769816E-06                    1_GWF-(1,14868)
        429          9         29  2.05213855E-05                    1_GWF-(1,26588)  4.63054463E-06                    1_GWF-(1,14867)
        430          9         30  2.29417521E-05                    1_GWF-(1,26589)  3.28425246E-06                    1_GWF-(1,14868)
        431          9         31  2.87065367E-05                    1_GWF-(1,26588)  1.33350044E-06                    1_GWF-(1,14867)
        432          9         32  2.51353152E-05                    1_GWF-(1,26665) -1.76543076E-06                    1_GWF-(1,14868)
        433          9         33  1.87250765E-05                    1_GWF-(1,26666)  3.49436872E-06                    1_GWF-(1,14868)
        434          9         34 -1.66296989E-05                    1_GWF-(1,26588)  3.64012381E-06                    1_GWF-(1,14867)
        435          9         35 -1.75718962E-05                    1_GWF-(1,26665)  3.32961424E-06                    1_GWF-(1,14868)
        436          9         36 -2.10279484E-05                    1_GWF-(1,26649)  1.86591592E-06                    1_GWF-(1,14867)
        437          9         37 -2.02400065E-05                    1_GWF-(1,26622)  8.78932799E-07                    1_GWF-(1,14868)
        438          9         38 -1.87147527E-05                    1_GWF-(1,26649)  1.41724978E-06                    1_GWF-(1,14868)
        439          9         39 -1.93842468E-05                    1_GWF-(1,26586)  1.95280125E-06                    1_GWF-(1,14867)
        440          9         40 -1.77329291E-05                    1_GWF-(1,26623)  2.05125883E-06                    1_GWF-(1,14868)
        441          9         41 -1.42773494E-05                    1_GWF-(1,26420) -1.50457688E-06                    1_GWF-(1,14868)
        442          9         42 -1.56746331E-05                    1_GWF-(1,26218)  1.56347095E-06                    1_GWF-(1,14868)
        443          9         43 -1.63162701E-05                    1_GWF-(1,26217)  1.27499223E-06                    1_GWF-(1,14782)
        444          9         44 -1.21399109E-05                    1_GWF-(1,26218)  2.24772246E-06                    1_GWF-(1,14867)
        445          9         45  1.16576147E-05                    1_GWF-(1,26218) -2.26424239E-06                    1_GWF-(1,14867)
        446          9         46  1.27353450E-05                    1_GWF-(1,26422)  3.16061810E-06                    1_GWF-(1,14867)
        447          9         47  1.38356097E-05                    1_GWF-(1,26218) -2.78698473E-06                    1_GWF-(1,14867)
        448          9         48  1.62499031E-05                    1_GWF-(1,26217)  3.08171035E-06                    1_GWF-(1,14867)
        449          9         49  1.34064925E-05                    1_GWF-(1,26218) -2.59496000E-06                    1_GWF-(1,14867)
        450          9         50  9.56350601E-06                    1_GWF-(1,26217)  3.02350644E-06                    1_GWF-(1,14867)
        451         10          1 -9.25717951E-06                    1_GWF-(1,26217) -2.78641281E-06                    1_GWF-(1,14867)
        452         10          2 -1.19201793E-05                    1_GWF-(1,26218)  2.92093071E-06                    1_GWF-(1,14867)
        453         10          3 -1.37540323E-05                    1_GWF-(1,26217) -2.07735038E-06                    1_GWF-(1,14867)
        454         10          4 -1.09041970E-05                    1_GWF-(1,26350)  1.84508898E-06                    1_GWF-(1,14867)
        455         10          5 -1.48006663E-05                    1_GWF-(1,26487)  6.70197818E-07                    1_GWF-(1,14782)
        456         10          6 -1.74605668E-05                    1_GWF-(1,26486)  7.38395903E-07                    1_GWF-(1,14782)
        457         10          7 -1.47736033E-05                    1_GWF-(1,26487)  1.79645121E-06                    1_GWF-(1,14867)
        458         10          8 -8.84999492E-06                    1_GWF-(1,26649) -1.70440149E-06                    1_GWF-(1,14867)
        459         10          9  9.28429445E-06                    1_GWF-(1,26217)  1.52649953E-06                    1_GWF-(1,14867)
        460         10         10  7.56813337E-06                    1_GWF-(1,26487) -7.28791376E-07                    1_GWF-(1,14867)
        461         10         11  5.29153850E-06                    1_GWF-(1,26420)  4.97202781E-07                    1_GWF-(1,14868)
        462         10         12  8.02518057E-06                    1_GWF-(1,26623)  4.74391871E-07                    1_GWF-(1,14869)
        463         10         13  8.81514047E-06                    1_GWF-(1,26589)  5.85451947E-07                    1_GWF-(1,14868)
        464         10         14  1.00276066E-05                    1_GWF-(1,26588)  6.04798813E-07                    1_GWF-(1,14867)
        465         10         15  8.82896803E-06                    1_GWF-(1,26622)  3.06912135E-07                    1_GWF-(1,14782)
        466         10         16  7.10947757E-06                    1_GWF-(1,26588)  5.41079235E-07                    1_GWF-(1,14868)
        467         10         17  5.76097174E-06                    1_GWF-(1,26543)  5.39032115E-07                    1_GWF-(1,14867)
        468         10         18 -5.35410861E-06                    1_GWF-(1,26647)  5.20152666E-07                    1_GWF-(1,14868)
        469         10         19 -8.29939116E-06                    1_GWF-(1,26665)  4.00146063E-07                    1_GWF-(1,14867)
        470         10         20 -6.36668174E-06                    1_GWF-(1,26666)  1.70841434E-07                    1_GWF-(1,14869)
        471         10         21 -5.17384923E-06                    1_GWF-(1,26665)  5.44969395E-07                    1_GWF-(1,14868)
        472         10         22 -4.00693755E-06                    1_GWF-(1,26588)  7.54160815E-07                    1_GWF-(1,14867)
        473         10         23 -3.94138913E-06                    1_GWF-(1,26487)  7.83848743E-07                    1_GWF-(1,14868)
        474         10         24 -5.09688859E-06                    1_GWF-(1,26420)  6.54885347E-07                    1_GWF-(1,14867)
        475         10         25 -4.30374092E-06                    1_GWF-(1,26421)  3.92393878E-07                    1_GWF-(1,14868)
        476         10         26 -4.75754784E-06                    1_GWF-(1,26350)  2.51097347E-07                    1_GWF-(1,14782)
        477         10         27  4.02827131E-06                    1_GWF-(1,26622)  6.68991099E-07                    1_GWF-(1,14867)
        478         10         28  3.67383226E-06                    1_GWF-(1,26589)  8.29219049E-07                    1_GWF-(1,14868)
        479         10         29  3.25434616E-06                    1_GWF-(1,26588)  9.04701947E-07                    1_GWF-(1,14867)
        480         10         30  3.17528314E-06                    1_GWF-(1,26420)  1.10461561E-06                    1_GWF-(1,14868)
        481         10         31  4.24520979E-06                    1_GWF-(1,26486) -1.04413285E-06                    1_GWF-(1,14868)
        482         10         32  4.55492344E-06                    1_GWF-(1,26350)  1.28714510E-06                    1_GWF-(1,14868)
        483         10         33  4.56504513E-06                    1_GWF-(1,26422)  8.80840103E-07                    1_GWF-(1,14869)
        484         10         34  3.74229592E-06                    1_GWF-(1,26350)  9.61473848E-07                    1_GWF-(1,14868)
        485         10         35  3.60440624E-06                    1_GWF-(1,26422) -5.20613616E-07                    1_GWF-(1,14868)
        486         10         36 -3.73571189E-06                    1_GWF-(1,26422)  4.72012227E-07                    1_GWF-(1,14867)
        487         10         37 -4.12735785E-06                    1_GWF-(1,26350)  3.28529178E-07                    1_GWF-(1,14782)
        488         10         38 -3.36050748E-06                    1_GWF-(1,26487)  3.98802503E-07                    1_GWF-(1,14869)
        489         10         39 -4.37024315E-06                    1_GWF-(1,26486)  4.97475120E-07                    1_GWF-(1,14868)
        490         10         40 -3.00203481E-06                    1_GWF-(1,26487)  3.75186019E-07                    1_GWF-(1,14782)
        491         10         41 -2.46406375E-06                    1_GWF-(1,26422)  4.89167334E-07                    1_GWF-(1,14867)
        492         10         42 -1.84545670E-06                    1_GWF-(1,26350)  3.58047128E-07                    1_GWF-(1,14782)
        493         10         43  2.42528918E-06                    1_GWF-(1,26350)  3.76462431E-07                    1_GWF-(1,14869)
        494         10         44  2.71755479E-06                    1_GWF-(1,26422)  6.15817994E-07                    1_GWF-(1,14868)
        495         10         45 -2.24255941E-06                    1_GWF-(1,26622) -3.79800608E-07                    1_GWF-(1,14868)
        496         10         46  2.53689458E-06                    1_GWF-(1,26487)  2.19336823E-07                    1_GWF-(1,14867)
        497         10         47  2.50967556E-06                    1_GWF-(1,26486)  3.20532315E-07                    1_GWF-(1,14868)
        498         10         48  2.05657863E-06                    1_GWF-(1,26622) -5.46538042E-07                    1_GWF-(1,14868)
        499         10         49 -1.54246331E-06                    1_GWF-(1,26487)  6.14277834E-07                    1_GWF-(1,14868)
        500         10         50 -1.44976746E-06                    1_GWF-(1,26486) -6.38673338E-07                    1_GWF-(1,14868)
        501         11          1 -1.40117168E-06                    1_GWF-(1,26588)  1.09972390E-06                    1_GWF-(1,14868)
        502         11          2 -1.79567161E-06                    1_GWF-(1,26543) -4.75095162E-07                    1_GWF-(1,14868)
        503         11          3 -1.92797064E-06                    1_GWF-(1,26648)  1.00604105E-07                    1_GWF-(1,10965)
        504         11          4 -2.43788792E-06                    1_GWF-(1,26649)  4.43036819E-07                    1_GWF-(1,14868)
        505         11          5  1.67825994E-06                    1_GWF-(1,26649) -7.23679673E-07                    1_GWF-(1,14868)
        506         11          6  1.55713977E-06                    1_GWF-(1,26622)  9.19581638E-07                    1_GWF-(1,14868)
        507         11          7 -1.77120861E-06                    1_GWF-(1,26422) -3.95345701E-07                    1_GWF-(1,14868)
        508         11          8 -2.15286691E-06                    1_GWF-(1,26420)  1.39633745E-07                    1_GWF-(1,14782)
        509         11          9  2.43758515E-06                    1_GWF-(1,26588)  5.22634159E-07                    1_GWF-(1,14868)
        510         11         10  1.84531916E-06                    1_GWF-(1,26589) -4.66334196E-07                    1_GWF-(1,14868)
        511         11         11  1.64906878E-06                    1_GWF-(1,26486)  4.76949805E-07                    1_GWF-(1,14868)
        512         11         12  1.39759234E-06                    1_GWF-(1,26544)  2.66621599E-07                    1_GWF-(1,14869)
        513         11         13  1.96565441E-06                    1_GWF-(1,26422)  2.71932946E-07                    1_GWF-(1,14782)
        514         11         14  2.77718974E-06                    1_GWF-(1,26350)  3.90721577E-07                    1_GWF-(1,14867)
        515         11         15  2.19437880E-06                    1_GWF-(1,26422)  2.18249530E-07                    1_GWF-(1,14782)
        516         11         16  1.83816742E-06                    1_GWF-(1,26420)  3.02256886E-07                    1_GWF-(1,14868)
        517         11         17 -2.30310190E-06                    1_GWF-(1,26486)  3.32919651E-07                    1_GWF-(1,14867)
        518         11         18 -2.48065453E-06                    1_GWF-(1,26487)  3.53901844E-07                    1_GWF-(1,14782)
        519         11         19 -2.46934375E-06                    1_GWF-(1,26486)  3.30230661E-07                    1_GWF-(1,14867)
        520         11         20 -2.58037370E-06                    1_GWF-(1,26350) -3.18282789E-07                    1_GWF-(1,14868)
        521         11         21 -1.97463014E-06                    1_GWF-(1,26666)  3.57369835E-07                    1_GWF-(1,14868)
        522         11         22 -1.69659537E-06                    1_GWF-(1,26665)  2.93903844E-07                    1_GWF-(1,14867)
        523         11         23  2.44609584E-06                    1_GWF-(1,26665) -2.81822762E-07                    1_GWF-(1,14867)
        524         11         24  1.93893046E-06                    1_GWF-(1,26666)  2.62485496E-07                    1_GWF-(1,14867)
        525         11         25  2.01851771E-06                    1_GWF-(1,26422) -2.05764542E-07                    1_GWF-(1,14868)
        526         11         26  2.16892074E-06                    1_GWF-(1,26350)  3.76163741E-07                    1_GWF-(1,14868)
        527         11         27  1.62314899E-06                    1_GWF-(1,26422) -3.79970640E-07                    1_GWF-(1,14868)
        528         11         28  1.04918725E-06                    1_GWF-(1,26350)  4.53903795E-07                    1_GWF-(1,14868)
        529         11         29  1.16992767E-06                    1_GWF-(1,26486) -3.93869023E-07                    1_GWF-(1,14868)
        530         11         30  1.00709818E-06                    1_GWF-(1,26586)  3.66855231E-07                    1_GWF-(1,14868)
        531         11         31  1.14306020E-06                    1_GWF-(1,26588)  2.42519444E-07                    1_GWF-(1,14867)
        532         11         32 -9.98367715E-07                    1_GWF-(1,26623) -1.22345848E-07                    1_GWF-(1,14867)
        533         12          1  1.19344399E-06                    1_GWF-(1,26623)  1.17393433E-07                    1_GWF-(1,14867)
        534         12          2 -1.13728740E-06                    1_GWF-(1,26588)  4.48771376E-08                    1_GWF-(1,14868)
        535         12          3 -1.05706927E-06                    1_GWF-(1,26622)  9.51627344E-08                    1_GWF-(1,14782)
        536         12          4 -1.13819821E-06                    1_GWF-(1,26649)  1.68919294E-07                    1_GWF-(1,14867)
        537         12          5 -7.08540083E-07                    1_GWF-(1,26622)  1.54100852E-07                    1_GWF-(1,14868)
        538         13          1  6.80119596E-07                    1_GWF-(1,26648)  1.58282607E-07                    1_GWF-(1,14867)
 --------------------------------------------------------------------------------------------------------------------------------------


 UBDSV1 SAVING     FLOW-JA-FACE ON UNIT   1020 AT TIME STEP      1, STRESS PERIOD      1
 UBDSV06 SAVING       DATA-SPDIS IN MODEL ML               PACKAGE NPF             CONNECTED TO MODEL ML               PACKAGE NPF              ON UNIT   1020 AT TIME STEP      1, STRESS PERIOD      1
 UBDSV06 SAVING              WEL IN MODEL ML               PACKAGE ML              CONNECTED TO MODEL ML               PACKAGE WEL_0            ON UNIT   1020 AT TIME STEP      1, STRESS PERIOD      1
 UBDSV06 SAVING              DRN IN MODEL ML               PACKAGE ML              CONNECTED TO MODEL ML               PACKAGE DRN_0            ON UNIT   1020 AT TIME STEP      1, STRESS PERIOD      1
 UBDSV06 SAVING              RIV IN MODEL ML               PACKAGE ML              CONNECTED TO MODEL ML               PACKAGE RIV_0            ON UNIT   1020 AT TIME STEP      1, STRESS PERIOD      1
 UBDSV06 SAVING              GHB IN MODEL ML               PACKAGE ML              CONNECTED TO MODEL ML               PACKAGE GHB_0            ON UNIT   1020 AT TIME STEP      1, STRESS PERIOD      1
 UBDSV06 SAVING              RCH IN MODEL ML               PACKAGE ML              CONNECTED TO MODEL ML               PACKAGE RCHA_0           ON UNIT   1020 AT TIME STEP      1, STRESS PERIOD      1

 HEAD WILL BE SAVED ON UNIT 1021 AT END OF TIME STEP    1, STRESS PERIOD    1


  VOLUME BUDGET FOR ENTIRE MODEL AT END OF TIME STEP    1, STRESS PERIOD   1
  ---------------------------------------------------------------------------------------------------

     CUMULATIVE VOLUME      L**3       RATES FOR THIS TIME STEP      L**3/T          PACKAGE NAME    
     ------------------                 ------------------------                     ----------------

           IN:                                      IN:
           ---                                      ---
                 WEL =           0.0000                   WEL =           0.0000     WEL_0           
                 DRN =           0.0000                   DRN =           0.0000     DRN_0           
                 RIV =           8.2313                   RIV =           0.9146     RIV_0           
                 GHB =          23.1749                   GHB =           2.5750     GHB_0           
                 RCH =           4.3616                   RCH =           0.4846     RCHA_0          

            TOTAL IN =          35.7678              TOTAL IN =           3.9742

          OUT:                                     OUT:
          ----                                     ----
                 WEL =           1.4412                   WEL =           0.1601     WEL_0           
                 DRN =           1.7181                   DRN =           0.1909     DRN_0           
                 RIV =          32.4282                   RIV =           3.6031     RIV_0           
                 GHB =           0.1804                   GHB =       2.0041E-02     GHB_0           
                 RCH =           0.0000                   RCH =           0.0000     RCHA_0          

           TOTAL OUT =          35.7678             TOTAL OUT =           3.9742

            IN - OUT =      -1.6383E-05              IN - OUT =      -1.8203E-06

 PERCENT DISCREPANCY =          -0.00     PERCENT DISCREPANCY =          -0.00




         TIME SUMMARY AT END OF TIME STEP    1 IN STRESS PERIOD    1
                    SECONDS     MINUTES      HOURS       DAYS        YEARS
                    -----------------------------------------------------------
   TIME STEP LENGTH  9.0000     0.15000     2.50000E-03 1.04167E-04 2.85193E-07
 STRESS PERIOD TIME  9.0000     0.15000     2.50000E-03 1.04167E-04 2.85193E-07
         TOTAL TIME  9.0000     0.15000     2.50000E-03 1.04167E-04 2.85193E-07


end timestep

