                                   MODFLOW 6
                U.S. GEOLOGICAL SURVEY MODULAR HYDROLOGIC MODEL
                            VERSION 6.2.2 07/30/2021

   MODFLOW 6 compiled Jul 31 2021 14:22:53 with IFORT compiler (ver. 19.10.3)

This software has been approved for release by the U.S. Geological 
Survey (USGS). Although the software has been subjected to rigorous 
review, the USGS reserves the right to update the software as needed 
pursuant to further analysis and review. No warranty, expressed or 
implied, is made by the USGS or the U.S. Government as to the 
functionality of the software and related material nor shall the 
fact of release constitute any such warranty. Furthermore, the 
software is released on condition that neither the USGS nor the U.S. 
Government shall be held liable for any damages resulting from its 
authorized or unauthorized use. Also refer to the USGS Water 
Resources Software User Rights Notice for complete use, copyright, 
and distribution information.


System command used to initiate simulation:
mf6

MODFLOW was compiled using uniform precision.

Real Variables
  KIND: 8
  TINY (smallest non-zero value):    2.225074-308
  HUGE (largest value):    1.797693+308
  PRECISION: 15
  BIT SIZE: 64

Integer Variables
  KIND: 4
  HUGE (largest value): 2147483647
  BIT SIZE: 32

Long Integer Variables
  KIND: 8
  HUGE (largest value): 9223372036854775807
  BIT SIZE: 64

Logical Variables
  KIND: 4
  BIT SIZE: 32
 

 OPENED mfsim.nam
 FILE TYPE:NAM   UNIT 1001   STATUS:OLD                 
 FORMAT:FORMATTED              ACCESS:SEQUENTIAL          
 ACTION:READ                

 # File generated by Flopy version 3.3.5 on 06/01/2022 at 18:11:54.

 READING SIMULATION OPTIONS
 END OF SIMULATION OPTIONS

 READING SIMULATION TIMING

 OPENED mfsim.tdis
 FILE TYPE:TDIS   UNIT 1002   STATUS:OLD                 
 FORMAT:FORMATTED              ACCESS:SEQUENTIAL          
 ACTION:READ                


 TDIS -- TEMPORAL DISCRETIZATION PACKAGE,
 VERSION 1 : 11/13/2014 - INPUT READ FROM UNIT 1002
 # File generated by Flopy version 3.3.5 on 06/01/2022 at 18:11:54.
 PROCESSING TDIS OPTIONS
    SIMULATION TIME UNIT IS SECONDS
 END OF TDIS OPTIONS
 PROCESSING TDIS DIMENSIONS
    1 STRESS PERIOD(S) IN SIMULATION
 END OF TDIS DIMENSIONS
 PROCESSING TDIS PERIODDATA


 STRESS PERIOD     LENGTH       TIME STEPS     MULTIPLIER FOR DELT
 ----------------------------------------------------------------------------
        1         5.000000          1                    1.000
 END OF TDIS PERIODDATA
 END OF SIMULATION TIMING

 READING SIMULATION MODELS
    GWF6 model ML will be created as model 1
 END OF SIMULATION MODELS

 READING SIMULATION EXCHANGES
 END OF SIMULATION EXCHANGES

 READING SOLUTIONGROUP

 Creating solution: SLN_1           

 OPENED mfsim.ims
 FILE TYPE:IMS   UNIT 1015   STATUS:OLD                 
 FORMAT:FORMATTED              ACCESS:SEQUENTIAL          
 ACTION:READ                

 END OF SIMULATION SOLUTIONGROUP

 IMS -- ITERATIVE MODEL SOLUTION PACKAGE, VERSION 6, 4/28/2017
         INPUT READ FROM UNIT 1015
 # File generated by Flopy version 3.3.5 on 06/01/2022 at 18:11:54.

 PROCESSING IMS OPTIONS
 END OF IMS OPTIONS

 PROCESSING IMS NONLINEAR
 END OF IMS NONLINEAR DATA
 ***UNDER-RELAXATION WILL NOT BE USED***
 
 ***IMS LINEAR SOLVER WILL BE USED***

 IMSLINEAR -- UNSTRUCTURED LINEAR SOLUTION PACKAGE, VERSION 8, 04/28/2017

 PROCESSING LINEAR DATA
 END OF LINEAR DATA
 
 OUTER ITERATION CONVERGENCE CRITERION    (DVCLOSE) =    0.100000E-04
 MAXIMUM NUMBER OF OUTER ITERATIONS        (MXITER) = 100
 SOLVER PRINTOUT INDEX                     (IPRIMS) = 2
 NONLINEAR ITERATION METHOD            (NONLINMETH) = 0
 LINEAR SOLUTION METHOD                   (LINMETH) = 1

       SOLUTION BY THE        CONJUGATE-GRADIENT       METHOD
 ------------------------------------------------------------------
 MAXIMUM OF 100 CALLS OF SOLUTION ROUTINE
 MAXIMUM OF 50 INTERNAL ITERATIONS PER CALL TO SOLUTION ROUTINE
 LINEAR ACCELERATION METHOD            = CG        
 MATRIX PRECONDITIONING TYPE           = INCOMPLETE LU       
 MATRIX SCALING APPROACH               = NO SCALING          
 MATRIX REORDERING APPROACH            = ORIGINAL ORDERING        
 NUMBER OF ORTHOGONALIZATIONS          = 0
 HEAD CHANGE CRITERION FOR CLOSURE     =    0.10000E-05
 RESIDUAL CHANGE CRITERION FOR CLOSURE =    0.10000E-04
 RESIDUAL CONVERGENCE OPTION           = 1
 RESIDUAL CONVERGENCE NORM             = INFINITY NORM S 
 RELAXATION FACTOR                     =    0.00000E+00



 
    Solving:  Stress period:     1    Time step:     1
 
1
                            STRESS PERIOD NO. 1, LENGTH =   5.000000    
                            -----------------------------------------------
                            NUMBER OF TIME STEPS = 1
                            MULTIPLIER FOR DELT =     1.000
                            INITIAL TIME STEP SIZE =   5.000000    

 SLN_1 OUTER ITERATION SUMMARY
 ----------------------------------------------------------------------------------------------------------
                                OUTER      INNER                    STEP   MAXIMUM CHANGE MODEL-(CELLID) OR
 OUTER ITERATION STEP       ITERATION  ITERATION  MAXIMUM CHANGE SUCCESS             MODEL-PACKAGE-(NUMBER)
 ----------------------------------------------------------------------------------------------------------
 Model                              1         50       168.23932                            1_GWF-(1,26519)
 Model                              2         50      -163.32230                            1_GWF-(1,26519)
 Model                              3         50       2.1268994                            1_GWF-(1,17430)
 Model                              4         50      -1.2827883                            1_GWF-(1,21767)
 Model                              5         50      0.28858116                            1_GWF-(1,17537)
 Model                              6         50     -0.16673042                            1_GWF-(1,21768)
 Model                              7         50 -6.65254665E-02                            1_GWF-(1,11431)
 Model                              8         50 -5.89029441E-02                            1_GWF-(1,11371)
 Model                              9         50  5.22517203E-03                            1_GWF-(1,17536)
 Model                             10         50  4.69083486E-02                            1_GWF-(1,11431)
 Model                             11         50 -4.68568760E-02                            1_GWF-(1,11431)
 Model                             12         50 -4.05393495E-04                            1_GWF-(1,25178)
 Model                             13         50 -3.95853110E-04                            1_GWF-(1,11436)
 Model                             14         50 -5.76539741E-05                             1_GWF-(1,2935)
 Model                             15         50 -5.36949527E-05                            1_GWF-(1,11434)
 Model                             16         50 -8.63971388E-06                             1_GWF-(1,2932)
 Model                             17         17 -4.30131250E-06                            1_GWF-(1,11412)
 Model                             18          2  1.26630195E-06                            1_GWF-(1,11438)
 Model                             19          1 -7.13278325E-07       *                    1_GWF-(1,11438)
 ----------------------------------------------------------------------------------------------------------


 19 CALLS TO NUMERICAL SOLUTION IN TIME STEP 1 STRESS PERIOD 1
 820 TOTAL ITERATIONS

 SLN_1 INNER ITERATION SUMMARY
 --------------------------------------------------------------------------------------------------------------------------------------
      TOTAL      OUTER      INNER                                                            MAXIMUM                                   
  ITERATION  ITERATION  ITERATION  MAXIMUM CHANGE      MAXIMUM CHANGE MODEL-(CELLID)        RESIDUAL    MAXIMUM RESIDUAL MODEL-(CELLID)
 --------------------------------------------------------------------------------------------------------------------------------------
          1          1          1       22.600254                    1_GWF-(1,26517)      0.19477762                    1_GWF-(1,15954)
          2          1          2       37.183590                    1_GWF-(1,26516)     -0.27872466                    1_GWF-(1,11179)
          3          1          3       48.119762                    1_GWF-(1,26515)     -0.25946761                    1_GWF-(1,15975)
          4          1          4       30.970177                    1_GWF-(1,26513)      0.19711417                    1_GWF-(1,15975)
          5          1          5       24.085324                    1_GWF-(1,26647)      0.15100760                    1_GWF-(1,11202)
          6          1          6       28.317074                    1_GWF-(1,26649)     -0.16663414                    1_GWF-(1,11207)
          7          1          7       22.810946                    1_GWF-(1,26622)      0.16707561                    1_GWF-(1,10966)
          8          1          8       17.810315                    1_GWF-(1,26623)      0.14404754                    1_GWF-(1,10960)
          9          1          9       14.010327                    1_GWF-(1,26543)  7.62106261E-02                    1_GWF-(1,10960)
         10          1         10       13.561421                    1_GWF-(1,26486)  8.12744471E-02                    1_GWF-(1,10967)
         11          1         11       10.296312                    1_GWF-(1,26487)      0.11064754                    1_GWF-(1,10966)
         12          1         12       6.9453609                    1_GWF-(1,26420)  9.03699460E-02                    1_GWF-(1,10960)
         13          1         13       5.8683011                    1_GWF-(1,26422)  6.15089075E-02                    1_GWF-(1,10960)
         14          1         14       4.0686228                    1_GWF-(1,26350)  6.26352385E-02                    1_GWF-(1,10966)
         15          1         15      -2.7491341                    1_GWF-(1,26623)  8.20231923E-02                    1_GWF-(1,10966)
         16          1         16      -2.6768726                    1_GWF-(1,26622)  6.67336521E-02                    1_GWF-(1,10960)
         17          1         17      -3.2741037                    1_GWF-(1,26623)  4.21516323E-02                    1_GWF-(1,11206)
         18          1         18      -3.8741968                    1_GWF-(1,26543)  5.36277963E-02                    1_GWF-(1,10967)
         19          1         19      -5.3406664                    1_GWF-(1,26588)  6.27649399E-02                    1_GWF-(1,10966)
         20          1         20      -4.2899818                    1_GWF-(1,26543)  4.48840530E-02                    1_GWF-(1,10960)
         21          1         21      -3.8066744                    1_GWF-(1,26487) -3.36702321E-02                    1_GWF-(1,11194)
         22          1         22      -4.1212192                    1_GWF-(1,26486)  4.23851255E-02                    1_GWF-(1,10966)
         23          1         23      -3.7957963                    1_GWF-(1,26487)  3.43301159E-02                    1_GWF-(1,10960)
         24          1         24       3.9576399                    1_GWF-(1,11618)  3.27796877E-02                    1_GWF-(1,14799)
         25          1         25       3.1263734                    1_GWF-(1,11707)  3.24695385E-02                    1_GWF-(1,14799)
         26          1         26       3.4062870                    1_GWF-(1,26487) -3.16505476E-02                    1_GWF-(1,11206)
         27          1         27       3.4222449                    1_GWF-(1,26420)  3.66999378E-02                    1_GWF-(1,11206)
         28          1         28       2.5854686                    1_GWF-(1,11618)  4.03858873E-02                    1_GWF-(1,14799)
         29          1         29       2.3430901                    1_GWF-(1,11706)  3.55860260E-02                    1_GWF-(1,14798)
         30          1         30      -2.2349238                    1_GWF-(1,11618)  3.13982110E-02                    1_GWF-(1,14799)
         31          1         31      -2.5654185                    1_GWF-(1,11707) -3.27690637E-02                    1_GWF-(1,11206)
         32          1         32       2.7123072                    1_GWF-(1,26422)  4.11229203E-02                    1_GWF-(1,14799)
         33          1         33      -2.5729984                    1_GWF-(1,26422)  3.64926054E-02                    1_GWF-(1,14799)
         34          1         34      -2.6267342                    1_GWF-(1,26350)  3.61065133E-02                    1_GWF-(1,14799)
         35          1         35      -2.5094781                    1_GWF-(1,26422)  3.05215670E-02                    1_GWF-(1,14799)
         36          1         36      -1.8810400                    1_GWF-(1,26544)  3.39783426E-02                    1_GWF-(1,14799)
         37          1         37      -1.5005357                    1_GWF-(1,26486)  3.43037098E-02                    1_GWF-(1,14799)
         38          1         38      -1.7560052                    1_GWF-(1,11621)  2.49243941E-02                    1_GWF-(1,14801)
         39          1         39      -1.2258934                    1_GWF-(1,26649)  3.38448103E-02                    1_GWF-(1,14799)
         40          1         40       1.8553993                    1_GWF-(1,11621) -3.11837606E-02                    1_GWF-(1,11206)
         41          1         41       1.1132356                    1_GWF-(1,11569)  3.17506936E-02                    1_GWF-(1,14799)
         42          1         42      -1.6670190                    1_GWF-(1,11622) -3.71231101E-02                    1_GWF-(1,11206)
         43          1         43       1.2571162                    1_GWF-(1,26350)  4.10599051E-02                    1_GWF-(1,14799)
         44          1         44       1.2345198                    1_GWF-(1,26217) -3.89914238E-02                    1_GWF-(1,11206)
         45          1         45      -1.6577282                    1_GWF-(1,11622)  3.79440122E-02                    1_GWF-(1,11206)
         46          1         46     -0.82347708                    1_GWF-(1,16081)  4.69926918E-02                    1_GWF-(1,14801)
         47          1         47      -1.1223959                    1_GWF-(1,26217)  7.12513268E-02                    1_GWF-(1,14799)
         48          1         48      -1.2989152                    1_GWF-(1,26218) -5.84028405E-02                    1_GWF-(1,14799)
         49          1         49      -1.5194634                    1_GWF-(1,26217)  9.56016283E-02                    1_GWF-(1,14799)
         50          1         50      -1.6458956                    1_GWF-(1,26218)      0.11651982                    1_GWF-(1,14801)
         51          2          1      -166.77093                    1_GWF-(1,26519)     -0.24062299                    1_GWF-(1,26458)
         52          2          2      -63.452062                    1_GWF-(1,26513)  5.79978293E-02                    1_GWF-(1,26458)
         53          2          3      -38.477846                    1_GWF-(1,26637)  6.76568040E-02                    1_GWF-(1,14799)
         54          2          4      -35.269135                    1_GWF-(1,26665)  5.56676875E-02                    1_GWF-(1,14801)
         55          2          5      -23.308222                    1_GWF-(1,26622)  8.35686774E-02                    1_GWF-(1,14799)
         56          2          6      -19.399091                    1_GWF-(1,26588)  7.67142838E-02                    1_GWF-(1,14801)
         57          2          7      -18.553847                    1_GWF-(1,26543)      0.12253393                    1_GWF-(1,14799)
         58          2          8      -13.353923                    1_GWF-(1,26486)      0.12056407                    1_GWF-(1,14801)
         59          2          9      -9.8020790                    1_GWF-(1,26487)      0.11989137                    1_GWF-(1,14799)
         60          2         10      -7.2878836                    1_GWF-(1,26421)  5.19737095E-02                    1_GWF-(1,14801)
         61          2         11      -7.1948061                    1_GWF-(1,26350)  2.43087441E-02                    1_GWF-(1,14801)
         62          2         12      -4.3327944                    1_GWF-(1,26217)  5.29121397E-02                    1_GWF-(1,14799)
         63          2         13      -2.5133922                    1_GWF-(1,26622)  5.73970199E-02                    1_GWF-(1,14801)
         64          2         14      -1.8058408                    1_GWF-(1,26623)  4.74436721E-02                    1_GWF-(1,14799)
         65          2         15      -1.7286428                    1_GWF-(1,26622)  1.94056675E-02                    1_GWF-(1,14801)
         66          2         16      -1.6027808                    1_GWF-(1,25728)  4.92603308E-02                    1_GWF-(1,14801)
         67          2         17       2.0945895                    1_GWF-(1,26350)  9.90154736E-02                    1_GWF-(1,14799)
         68          2         18       1.8894971                    1_GWF-(1,26422)  8.48188834E-02                    1_GWF-(1,14801)
         69          2         19       2.0057611                    1_GWF-(1,26588)  7.73936841E-02                    1_GWF-(1,14799)
         70          2         20       1.8356102                    1_GWF-(1,26543)  1.40387528E-02                    1_GWF-(1,14801)
         71          2         21       1.9666480                    1_GWF-(1,26588)  7.67311059E-02                    1_GWF-(1,14801)
         72          2         22       2.2997452                    1_GWF-(1,26543)      0.13610357                    1_GWF-(1,14799)
         73          2         23       1.8015639                    1_GWF-(1,26544)      0.14962072                    1_GWF-(1,14801)
         74          2         24      -2.7286500                    1_GWF-(1,26487)      0.11896266                    1_GWF-(1,14799)
         75          2         25      -3.2844701                    1_GWF-(1,26486)  2.17183030E-02                    1_GWF-(1,14799)
         76          2         26      -3.4924530                    1_GWF-(1,26487)      0.13737469                    1_GWF-(1,14801)
         77          2         27      -2.4448906                    1_GWF-(1,26420)      0.25050638                    1_GWF-(1,14799)
         78          2         28       1.7531704                    1_GWF-(1,26217)      0.21231808                    1_GWF-(1,14801)
         79          2         29      -1.4984192                    1_GWF-(1,26327)      0.22676545                    1_GWF-(1,14799)
         80          2         30       1.5168006                    1_GWF-(1,26420)      0.18565408                    1_GWF-(1,14801)
         81          2         31      -1.1275279                    1_GWF-(1,26674)      0.17788562                    1_GWF-(1,14799)
         82          2         32      -1.0797070                    1_GWF-(1,26422)      0.14582100                    1_GWF-(1,14801)
         83          2         33      -1.1129972                    1_GWF-(1,26350)      0.11790080                    1_GWF-(1,14800)
         84          2         34      0.93698215                    1_GWF-(1,26350)      0.10441623                    1_GWF-(1,14801)
         85          2         35       1.3255763                    1_GWF-(1,26422)  7.39630204E-02                    1_GWF-(1,14800)
         86          2         36      0.87645382                    1_GWF-(1,26218)  5.17009945E-02                    1_GWF-(1,14801)
         87          2         37     -0.71333013                    1_GWF-(1,26350)  2.91086582E-02                    1_GWF-(1,14800)
         88          2         38      0.70669557                    1_GWF-(1,26350)  5.16102864E-02                    1_GWF-(1,14799)
         89          2         39      0.87098243                    1_GWF-(1,26422)  6.36620328E-02                    1_GWF-(1,14798)
         90          2         40     -0.88833567                    1_GWF-(1,26486)      0.12940153                    1_GWF-(1,14799)
         91          2         41     -0.94568003                    1_GWF-(1,26420)     -0.13599482                    1_GWF-(1,14799)
         92          2         42     -0.82450654                    1_GWF-(1,26421)      0.18512192                    1_GWF-(1,14799)
         93          2         43     -0.92977849                    1_GWF-(1,26350)      0.15978568                    1_GWF-(1,14801)
         94          2         44     -0.71491293                    1_GWF-(1,26218)      0.16400027                    1_GWF-(1,14799)
         95          2         45      -1.0161579                    1_GWF-(1,26420)      0.13054431                    1_GWF-(1,14801)
         96          2         46      0.69336469                    1_GWF-(1,26217)  9.58971040E-02                    1_GWF-(1,14800)
         97          2         47     -0.70595784                    1_GWF-(1,26663)  9.26209225E-02                    1_GWF-(1,14801)
         98          2         48     -0.59564469                    1_GWF-(1,26218)  6.99590797E-02                    1_GWF-(1,14800)
         99          2         49     -0.64517827                    1_GWF-(1,22783)  7.52849208E-02                    1_GWF-(1,14801)
        100          2         50     -0.51991325                    1_GWF-(1,26604)  6.84221190E-02                    1_GWF-(1,14800)
        101          3          1     -0.35182253                    1_GWF-(1,11437)  3.08879232E-02                    1_GWF-(1,14801)
        102          3          2      0.53180775                    1_GWF-(1,22783)  9.03573655E-02                    1_GWF-(1,14800)
        103          3          3      0.49241405                    1_GWF-(1,26623)      0.11349623                    1_GWF-(1,14801)
        104          3          4      0.54154060                    1_GWF-(1,26217)  7.23498038E-02                    1_GWF-(1,14800)
        105          3          5      0.47437279                    1_GWF-(1,26421)      0.11538143                    1_GWF-(1,14801)
        106          3          6      0.42548327                    1_GWF-(1,11438)     -0.13778481                    1_GWF-(1,14801)
        107          3          7     -0.47608952                    1_GWF-(1,26350)      0.12794796                    1_GWF-(1,14801)
        108          3          8     -0.61922860                    1_GWF-(1,26421)      0.10944749                    1_GWF-(1,14800)
        109          3          9      0.57022546                    1_GWF-(1,26422)      0.13566078                    1_GWF-(1,14801)
        110          3         10      0.60253941                    1_GWF-(1,26350)  9.05844925E-02                    1_GWF-(1,14800)
        111          3         11      0.46707864                    1_GWF-(1,26486)  6.46264838E-02                    1_GWF-(1,14801)
        112          3         12     -0.59476701                    1_GWF-(1,26422)  3.75444285E-02                    1_GWF-(1,14800)
        113          3         13      0.39616353                    1_GWF-(1,26422)  2.99329040E-02                    1_GWF-(1,10966)
        114          3         14      0.40898872                    1_GWF-(1,26350)  3.72519792E-02                    1_GWF-(1,14799)
        115          3         15     -0.51126294                    1_GWF-(1,26350)  3.78833002E-02                    1_GWF-(1,10966)
        116          3         16     -0.53416140                    1_GWF-(1,26422)  5.97212457E-02                    1_GWF-(1,14799)
        117          3         17      0.44428952                    1_GWF-(1,26422)  5.00918334E-02                    1_GWF-(1,14800)
        118          3         18      0.47116560                    1_GWF-(1,26350)  6.91878984E-02                    1_GWF-(1,14801)
        119          3         19     -0.47845073                    1_GWF-(1,11438)  7.98098594E-02                    1_GWF-(1,14800)
        120          3         20      0.44555922                    1_GWF-(1,26659)  8.69581745E-02                    1_GWF-(1,14801)
        121          3         21     -0.48025694                    1_GWF-(1,26420)  7.83161649E-02                    1_GWF-(1,14800)
        122          3         22     -0.58303223                    1_GWF-(1,11438)  9.56438130E-02                    1_GWF-(1,14801)
        123          3         23     -0.51284644                    1_GWF-(1,26217)  8.25189402E-02                    1_GWF-(1,14800)
        124          3         24     -0.43337504                    1_GWF-(1,26421)  6.65180226E-02                    1_GWF-(1,14801)
        125          3         25      0.68993553                    1_GWF-(1,26487) -4.12623327E-02                    1_GWF-(1,10966)
        126          3         26      0.85461359                    1_GWF-(1,26420)  2.08950585E-02                    1_GWF-(1,14798)
        127          3         27      0.76759790                    1_GWF-(1,26487)  3.35813799E-02                    1_GWF-(1,14801)
        128          3         28     -0.55132084                    1_GWF-(1,26487)  4.30758707E-02                    1_GWF-(1,14800)
        129          3         29     -0.62401788                    1_GWF-(1,26486)  4.73942365E-02                    1_GWF-(1,14801)
        130          3         30     -0.58627906                    1_GWF-(1,26544)  3.60533162E-02                    1_GWF-(1,14799)
        131          3         31     -0.53712241                    1_GWF-(1,26486) -2.69749765E-02                    1_GWF-(1,14799)
        132          3         32      0.62218910                    1_GWF-(1,26543)  2.18040195E-02                    1_GWF-(1,14801)
        133          3         33     -0.60273122                    1_GWF-(1,26543)  3.62396861E-02                    1_GWF-(1,14800)
        134          3         34     -0.58493370                    1_GWF-(1,26588)  4.23863404E-02                    1_GWF-(1,10966)
        135          3         35      0.54017296                    1_GWF-(1,26588)  4.87999617E-02                    1_GWF-(1,14799)
        136          3         36      0.43686262                    1_GWF-(1,26665) -3.61698166E-02                    1_GWF-(1,14799)
        137          3         37      0.46794978                    1_GWF-(1,26623)  2.56580654E-02                    1_GWF-(1,14799)
        138          3         38      0.62057618                    1_GWF-(1,26622)  1.71123073E-02                    1_GWF-(1,14800)
        139          3         39      0.47906746                    1_GWF-(1,26649) -3.31510178E-02                    1_GWF-(1,14799)
        140          3         40     -0.46173379                    1_GWF-(1,26649)  4.82180734E-02                    1_GWF-(1,14799)
        141          3         41     -0.44571177                    1_GWF-(1,26622) -3.54601475E-02                    1_GWF-(1,14799)
        142          3         42     -0.58559780                    1_GWF-(1,26665)  1.15346840E-02                    1_GWF-(1,14799)
        143          3         43     -0.55616649                    1_GWF-(1,26666) -2.68887662E-02                    1_GWF-(1,10966)
        144          3         44     -0.43363937                    1_GWF-(1,26665) -3.83716462E-02                    1_GWF-(1,14799)
        145          3         45      0.56017358                    1_GWF-(1,26665)  6.05626490E-02                    1_GWF-(1,14799)
        146          3         46      0.47489688                    1_GWF-(1,26666) -5.98668779E-02                    1_GWF-(1,14799)
        147          3         47     -0.31686581                    1_GWF-(1,25816)  7.53566029E-02                    1_GWF-(1,14799)
        148          3         48     -0.29486684                    1_GWF-(1,26154) -6.27820689E-02                    1_GWF-(1,14799)
        149          3         49     -0.33222804                    1_GWF-(1,26649)  9.10064783E-02                    1_GWF-(1,14799)
        150          3         50     -0.37818358                    1_GWF-(1,26637) -7.12666500E-02                    1_GWF-(1,14799)
        151          4          1     -0.27271686                    1_GWF-(1,11453)  7.80107010E-02                    1_GWF-(1,14799)
        152          4          2      0.19412987                    1_GWF-(1,26623) -7.39208111E-02                    1_GWF-(1,14799)
        153          4          3      0.21066983                    1_GWF-(1,25802)  7.69960259E-02                    1_GWF-(1,14799)
        154          4          4     -0.29452872                    1_GWF-(1,11453) -6.56481937E-02                    1_GWF-(1,14799)
        155          4          5      0.20944011                    1_GWF-(1,25815)  6.37589620E-02                    1_GWF-(1,14799)
        156          4          6     -0.24900989                    1_GWF-(1,26665) -4.25913606E-02                    1_GWF-(1,14799)
        157          4          7     -0.26791945                    1_GWF-(1,26666)  3.21898974E-02                    1_GWF-(1,14799)
        158          4          8     -0.34822554                    1_GWF-(1,26665)  1.06307873E-02                    1_GWF-(1,14801)
        159          4          9      0.36299232                    1_GWF-(1,26665) -1.62852269E-02                    1_GWF-(1,14799)
        160          4         10      0.30671193                    1_GWF-(1,26666)  3.74798958E-02                    1_GWF-(1,14799)
        161          4         11      0.27659232                    1_GWF-(1,26649) -3.22366522E-02                    1_GWF-(1,14799)
        162          4         12     -0.26411080                    1_GWF-(1,26649)  1.86594972E-02                    1_GWF-(1,14799)
        163          4         13      0.26814255                    1_GWF-(1,26649)  7.78938737E-03                    1_GWF-(1,14799)
        164          4         14      0.32066679                    1_GWF-(1,26622) -2.09045693E-02                    1_GWF-(1,14799)
        165          4         15      0.24078470                    1_GWF-(1,26623)  3.13973629E-02                    1_GWF-(1,14799)
        166          4         16     -0.26766477                    1_GWF-(1,26623) -2.54658938E-02                    1_GWF-(1,14799)
        167          4         17      0.20743932                    1_GWF-(1,11438)  1.86399089E-02                    1_GWF-(1,14799)
        168          4         18     -0.26270123                    1_GWF-(1,26588)  1.27192953E-02                    1_GWF-(1,14801)
        169          4         19     -0.37503521                    1_GWF-(1,26543) -1.03014948E-02                    1_GWF-(1,14799)
        170          4         20     -0.35542862                    1_GWF-(1,26588)  1.92423871E-02                    1_GWF-(1,14799)
        171          4         21     -0.23453351                    1_GWF-(1,26543) -1.55569382E-02                    1_GWF-(1,14799)
        172          4         22      0.20216811                    1_GWF-(1,26486)  1.48276003E-02                    1_GWF-(1,14800)
        173          4         23      0.21157523                    1_GWF-(1,26487)  1.46381282E-02                    1_GWF-(1,14801)
        174          4         24      0.25834250                    1_GWF-(1,26486)  6.65134709E-03                    1_GWF-(1,14800)
        175          4         25      0.28307752                    1_GWF-(1,26487)  1.55567155E-02                    1_GWF-(1,14799)
        176          4         26      0.25246570                    1_GWF-(1,26420)  1.55204291E-02                    1_GWF-(1,14801)
        177          4         27      0.17948255                    1_GWF-(1,26487)  2.03150873E-02                    1_GWF-(1,14800)
        178          4         28      0.20157933                    1_GWF-(1,11458)  2.55190545E-02                    1_GWF-(1,14801)
        179          4         29      0.19642930                    1_GWF-(1,11438)  2.04203917E-02                    1_GWF-(1,14800)
        180          4         30      0.13404512                    1_GWF-(1,26420)  2.45311648E-02                    1_GWF-(1,14801)
        181          4         31      0.17927537                    1_GWF-(1,26486) -2.17844717E-02                    1_GWF-(1,14801)
        182          4         32      0.19902351                    1_GWF-(1,11438)  2.39730539E-02                    1_GWF-(1,14801)
        183          4         33     -0.16938086                    1_GWF-(1,26544)  1.70407575E-02                    1_GWF-(1,14800)
        184          4         34     -0.15724731                    1_GWF-(1,26486)  1.72886396E-02                    1_GWF-(1,14801)
        185          4         35     -0.18056205                    1_GWF-(1,26350)  9.93525818E-03                    1_GWF-(1,14800)
        186          4         36     -0.19281626                    1_GWF-(1,26422)  1.10800591E-02                    1_GWF-(1,14799)
        187          4         37     -0.14803253                    1_GWF-(1,26350)  6.34556355E-03                    1_GWF-(1,14798)
        188          4         38      0.13841111                    1_GWF-(1,11438)  7.69232576E-03                    1_GWF-(1,14799)
        189          4         39     -0.12714309                    1_GWF-(1,11438)  8.53723322E-03                    1_GWF-(1,14801)
        190          4         40     -0.10543911                    1_GWF-(1,26422)  1.20716462E-02                    1_GWF-(1,14800)
        191          4         41      0.12654300                    1_GWF-(1,11438)  1.80314086E-02                    1_GWF-(1,14801)
        192          4         42     -0.13711689                    1_GWF-(1,11438)  1.75069644E-02                    1_GWF-(1,14800)
        193          4         43      0.12759965                    1_GWF-(1,26421)  1.94982350E-02                    1_GWF-(1,14801)
        194          4         44      0.14150895                    1_GWF-(1,26350)  2.04861206E-02                    1_GWF-(1,14800)
        195          4         45     -0.14556110                    1_GWF-(1,11438)  2.26999982E-02                    1_GWF-(1,14801)
        196          4         46  9.47589660E-02                    1_GWF-(1,26420)  1.71881953E-02                    1_GWF-(1,14800)
        197          4         47  9.05801635E-02                    1_GWF-(1,11438)  1.85155644E-02                    1_GWF-(1,14801)
        198          4         48     -0.13385990                    1_GWF-(1,11438)  1.41382214E-02                    1_GWF-(1,14800)
        199          4         49 -6.81944638E-02                    1_GWF-(1,26420)  1.32114147E-02                    1_GWF-(1,14801)
        200          4         50 -9.49558444E-02                    1_GWF-(1,26218)  1.01015420E-02                    1_GWF-(1,14800)
        201          5          1     -0.10337947                    1_GWF-(1,11431)  4.20720873E-03                    1_GWF-(1,14801)
        202          5          2 -7.11147477E-02                    1_GWF-(1,11436)  1.40108153E-02                    1_GWF-(1,14800)
        203          5          3  6.13944220E-02                    1_GWF-(1,26218)  1.80318439E-02                    1_GWF-(1,14801)
        204          5          4 -8.39848852E-02                    1_GWF-(1,26486)  1.09412468E-02                    1_GWF-(1,14800)
        205          5          5     -0.12157078                    1_GWF-(1,11436)  1.55754345E-02                    1_GWF-(1,14801)
        206          5          6      0.12344208                    1_GWF-(1,11436) -1.80620490E-02                    1_GWF-(1,14801)
        207          5          7     -0.10487831                    1_GWF-(1,26350)  1.64569438E-02                    1_GWF-(1,14801)
        208          5          8     -0.11213357                    1_GWF-(1,11436)  1.31318693E-02                    1_GWF-(1,14800)
        209          5          9      0.14831244                    1_GWF-(1,11436)  1.55209045E-02                    1_GWF-(1,14801)
        210          5         10  6.92265224E-02                    1_GWF-(1,26350)  1.09200026E-02                    1_GWF-(1,14800)
        211          5         11 -8.42001505E-02                    1_GWF-(1,11435)  7.58714505E-03                    1_GWF-(1,14801)
        212          5         12      0.13267848                    1_GWF-(1,11436)  4.78569572E-03                    1_GWF-(1,14799)
        213          5         13      0.11376551                    1_GWF-(1,26422)  4.67955101E-03                    1_GWF-(1,10966)
        214          5         14      0.10282969                    1_GWF-(1,26350)  6.48700680E-03                    1_GWF-(1,14799)
        215          5         15  9.50067955E-02                    1_GWF-(1,26422) -5.14030090E-03                    1_GWF-(1,14799)
        216          5         16      0.11278275                    1_GWF-(1,11416)  8.59193956E-03                    1_GWF-(1,14799)
        217          5         17  8.01371267E-02                    1_GWF-(1,26486)  7.87881591E-03                    1_GWF-(1,14800)
        218          5         18  7.24175991E-02                    1_GWF-(1,26544)  1.01865549E-02                    1_GWF-(1,14801)
        219          5         19      0.13838151                    1_GWF-(1,11416)  1.04312090E-02                    1_GWF-(1,14800)
        220          5         20     -0.11267099                    1_GWF-(1,26486)  1.16694639E-02                    1_GWF-(1,14801)
        221          5         21 -7.62007831E-02                    1_GWF-(1,11415)  8.10196766E-03                    1_GWF-(1,14800)
        222          5         22      0.13279060                    1_GWF-(1,11416)  5.58571630E-03                    1_GWF-(1,14801)
        223          5         23     -0.14198335                    1_GWF-(1,26588)  4.62483923E-03                    1_GWF-(1,14799)
        224          5         24     -0.10426673                    1_GWF-(1,26622)  7.27868306E-03                    1_GWF-(1,14800)
        225          5         25      0.13347938                    1_GWF-(1,11416)  1.07738477E-02                    1_GWF-(1,14801)
        226          5         26  7.72169381E-02                    1_GWF-(1,26218)  8.68452971E-03                    1_GWF-(1,14800)
        227          5         27 -7.54465210E-02                    1_GWF-(1,11416)  8.43761416E-03                    1_GWF-(1,14801)
        228          5         28      0.10657997                    1_GWF-(1,11416)  5.81274380E-03                    1_GWF-(1,14800)
        229          5         29  6.86183530E-02                    1_GWF-(1,26622) -5.02125486E-03                    1_GWF-(1,14799)
        230          5         30  6.93511546E-02                    1_GWF-(1,26543)  5.01393498E-03                    1_GWF-(1,14799)
        231          5         31      0.10514803                    1_GWF-(1,26588)  2.40470341E-03                    1_GWF-(1,14800)
        232          5         32  9.07533979E-02                    1_GWF-(1,26543)  4.76735991E-03                    1_GWF-(1,14801)
        233          5         33 -6.71268632E-02                    1_GWF-(1,11416)  4.82778167E-03                    1_GWF-(1,14799)
        234          5         34  8.74541851E-02                    1_GWF-(1,11416) -5.96521984E-03                    1_GWF-(1,14799)
        235          5         35 -5.42762966E-02                    1_GWF-(1,26665)  7.92083633E-03                    1_GWF-(1,14799)
        236          5         36  8.00941970E-02                    1_GWF-(1,26665) -5.59686595E-03                    1_GWF-(1,14799)
        237          5         37  8.40340003E-02                    1_GWF-(1,26666)  3.58834326E-03                    1_GWF-(1,14799)
        238          5         38  8.13329120E-02                    1_GWF-(1,26665)  2.80968823E-03                    1_GWF-(1,14800)
        239          5         39 -5.62640575E-02                    1_GWF-(1,11416) -4.78649942E-03                    1_GWF-(1,14799)
        240          5         40 -6.19201394E-02                    1_GWF-(1,11452)  7.91909951E-03                    1_GWF-(1,14799)
        241          5         41 -6.79187443E-02                    1_GWF-(1,26486) -4.77766499E-03                    1_GWF-(1,14799)
        242          5         42 -6.52434824E-02                    1_GWF-(1,26487)  1.82472018E-03                    1_GWF-(1,14799)
        243          5         43  5.27229520E-02                    1_GWF-(1,26622)  3.68436934E-03                    1_GWF-(1,14799)
        244          5         44  3.91404178E-02                    1_GWF-(1,26649) -5.51765393E-03                    1_GWF-(1,14799)
        245          5         45 -6.29753975E-02                    1_GWF-(1,11416)  8.68939024E-03                    1_GWF-(1,14799)
        246          5         46 -5.88410853E-02                    1_GWF-(1,11452) -9.09577669E-03                    1_GWF-(1,14799)
        247          5         47 -4.17911164E-02                    1_GWF-(1,26152)  1.09640843E-02                    1_GWF-(1,14799)
        248          5         48  4.19208274E-02                    1_GWF-(1,26218) -9.99772583E-03                    1_GWF-(1,14799)
        249          5         49 -5.90883541E-02                    1_GWF-(1,11452)  1.14780176E-02                    1_GWF-(1,14799)
        250          5         50 -3.37688327E-02                    1_GWF-(1,26217) -1.10232229E-02                    1_GWF-(1,14799)
        251          6          1  7.35110046E-02                    1_GWF-(1,11431)  1.15835220E-02                    1_GWF-(1,14799)
        252          6          2  2.98996823E-02                    1_GWF-(1,11436) -9.72376166E-03                    1_GWF-(1,14799)
        253          6          3 -4.92971578E-02                    1_GWF-(1,11431)  1.01439663E-02                    1_GWF-(1,14799)
        254          6          4  5.60137639E-02                    1_GWF-(1,11431) -8.92342125E-03                    1_GWF-(1,14799)
        255          6          5  4.75126437E-02                    1_GWF-(1,11436)  8.43238069E-03                    1_GWF-(1,14799)
        256          6          6 -4.28004724E-02                    1_GWF-(1,11436) -5.43588954E-03                    1_GWF-(1,14799)
        257          6          7 -4.32829757E-02                    1_GWF-(1,11413)  4.03826463E-03                    1_GWF-(1,14799)
        258          6          8 -4.31870849E-02                    1_GWF-(1,26622)  1.28481752E-03                    1_GWF-(1,14801)
        259          6          9  5.57737337E-02                    1_GWF-(1,26487) -3.11910336E-03                    1_GWF-(1,14799)
        260          6         10  5.07165092E-02                    1_GWF-(1,26486)  6.15865617E-03                    1_GWF-(1,14799)
        261          6         11  3.70343844E-02                    1_GWF-(1,26487) -4.60788011E-03                    1_GWF-(1,14799)
        262          6         12 -3.86597427E-02                    1_GWF-(1,26487)  2.39816890E-03                    1_GWF-(1,14799)
        263          6         13 -4.18383598E-02                    1_GWF-(1,26665)  1.66355084E-03                    1_GWF-(1,14799)
        264          6         14 -4.29570946E-02                    1_GWF-(1,26666) -3.39418719E-03                    1_GWF-(1,14799)
        265          6         15 -4.63466241E-02                    1_GWF-(1,26665)  5.00163119E-03                    1_GWF-(1,14799)
        266          6         16 -4.00805044E-02                    1_GWF-(1,11435) -4.01064781E-03                    1_GWF-(1,14799)
        267          6         17 -3.85157545E-02                    1_GWF-(1,11416)  2.96693383E-03                    1_GWF-(1,14799)
        268          6         18 -2.84451735E-02                    1_GWF-(1,11409)  2.07610114E-03                    1_GWF-(1,14801)
        269          6         19 -4.18656331E-02                    1_GWF-(1,26543)  1.24885558E-03                    1_GWF-(1,14800)
        270          6         20 -5.14053956E-02                    1_GWF-(1,26588)  2.25484279E-03                    1_GWF-(1,14799)
        271          6         21 -3.93000414E-02                    1_GWF-(1,26543) -2.47400653E-03                    1_GWF-(1,14799)
        272          6         22 -2.77439544E-02                    1_GWF-(1,26622)  2.65951744E-03                    1_GWF-(1,14799)
        273          6         23  2.78859483E-02                    1_GWF-(1,11438)  2.90595718E-03                    1_GWF-(1,14801)
        274          6         24 -2.62081518E-02                    1_GWF-(1,26217)  3.04582849E-03                    1_GWF-(1,14800)
        275          6         25 -2.93766870E-02                    1_GWF-(1,26218)  3.77868839E-03                    1_GWF-(1,14801)
        276          6         26 -2.81881938E-02                    1_GWF-(1,11458)  2.52357997E-03                    1_GWF-(1,14800)
        277          6         27  3.69864588E-02                    1_GWF-(1,26622)  1.40215908E-03                    1_GWF-(1,14799)
        278          6         28  4.09843056E-02                    1_GWF-(1,26588)  1.18889300E-03                    1_GWF-(1,14801)
        279          6         29 -2.59073323E-02                    1_GWF-(1,11458)  2.10980370E-03                    1_GWF-(1,14800)
        280          6         30  2.18144327E-02                    1_GWF-(1,26544)  3.14112281E-03                    1_GWF-(1,14801)
        281          6         31  3.53152546E-02                    1_GWF-(1,26486)  2.88195137E-03                    1_GWF-(1,14800)
        282          6         32  2.74403646E-02                    1_GWF-(1,11438)  3.01122516E-03                    1_GWF-(1,14801)
        283          6         33  2.04248951E-02                    1_GWF-(1,11458)  2.30155407E-03                    1_GWF-(1,14800)
        284          6         34 -2.15512245E-02                    1_GWF-(1,26486)  2.33454771E-03                    1_GWF-(1,14799)
        285          6         35 -2.47990259E-02                    1_GWF-(1,26350)  1.43231894E-03                    1_GWF-(1,14800)
        286          6         36 -2.80173896E-02                    1_GWF-(1,26422)  1.76041898E-03                    1_GWF-(1,14799)
        287          6         37 -2.69315269E-02                    1_GWF-(1,26350)  1.05505602E-03                    1_GWF-(1,14798)
        288          6         38 -2.74464638E-02                    1_GWF-(1,26422)  1.16077834E-03                    1_GWF-(1,14799)
        289          6         39 -2.87425314E-02                    1_GWF-(1,11438)  1.42836414E-03                    1_GWF-(1,14801)
        290          6         40 -1.60250517E-02                    1_GWF-(1,26422)  2.01269517E-03                    1_GWF-(1,14800)
        291          6         41 -1.38990227E-02                    1_GWF-(1,26350)  2.82985104E-03                    1_GWF-(1,14801)
        292          6         42 -2.45224895E-02                    1_GWF-(1,11438)  2.47673723E-03                    1_GWF-(1,14800)
        293          6         43  1.78018205E-02                    1_GWF-(1,26421)  2.93644635E-03                    1_GWF-(1,14801)
        294          6         44  1.94317374E-02                    1_GWF-(1,26350)  2.90840350E-03                    1_GWF-(1,14800)
        295          6         45 -1.80672584E-02                    1_GWF-(1,11438)  2.90741024E-03                    1_GWF-(1,14801)
        296          6         46  1.71199222E-02                    1_GWF-(1,11438)  2.17495410E-03                    1_GWF-(1,14800)
        297          6         47  1.83136628E-02                    1_GWF-(1,11431)  2.67567022E-03                    1_GWF-(1,14801)
        298          6         48  1.12612013E-02                    1_GWF-(1,26589)  2.01453031E-03                    1_GWF-(1,14800)
        299          6         49  1.35195969E-02                    1_GWF-(1,11438)  1.64335255E-03                    1_GWF-(1,14801)
        300          6         50  2.86843261E-02                    1_GWF-(1,11431)  1.58221211E-03                    1_GWF-(1,14800)
        301          7          1 -6.66617889E-02                    1_GWF-(1,11431)  6.13565507E-04                    1_GWF-(1,14801)
        302          7          2  3.65948809E-02                    1_GWF-(1,11372)  1.85049376E-03                    1_GWF-(1,14800)
        303          7          3 -3.25416682E-02                    1_GWF-(1,11372)  2.29583603E-03                    1_GWF-(1,14801)
        304          7          4 -2.23468641E-02                    1_GWF-(1,11367)  1.75226807E-03                    1_GWF-(1,14800)
        305          7          5 -3.77355728E-02                    1_GWF-(1,11436)  2.33518163E-03                    1_GWF-(1,14801)
        306          7          6  3.67154012E-02                    1_GWF-(1,11436) -2.31203233E-03                    1_GWF-(1,14801)
        307          7          7 -2.44418638E-02                    1_GWF-(1,11367)  2.30026986E-03                    1_GWF-(1,14801)
        308          7          8 -2.80372870E-02                    1_GWF-(1,11436)  2.03673212E-03                    1_GWF-(1,14800)
        309          7          9  3.54578529E-02                    1_GWF-(1,11436)  2.52910141E-03                    1_GWF-(1,14801)
        310          7         10 -2.92589259E-02                    1_GWF-(1,11415)  1.83131133E-03                    1_GWF-(1,14800)
        311          7         11 -3.13947397E-02                    1_GWF-(1,11435)  1.36914607E-03                    1_GWF-(1,14801)
        312          7         12  2.65294267E-02                    1_GWF-(1,11436)  8.29328830E-04                    1_GWF-(1,14800)
        313          7         13 -2.88582846E-02                    1_GWF-(1,11415)  6.05057507E-04                    1_GWF-(1,14798)
        314          7         14  2.95920248E-02                    1_GWF-(1,11415)  9.18911151E-04                    1_GWF-(1,14799)
        315          7         15  1.75641480E-02                    1_GWF-(1,26422) -7.82755095E-04                    1_GWF-(1,14799)
        316          7         16  1.97634845E-02                    1_GWF-(1,11416)  1.33618278E-03                    1_GWF-(1,14799)
        317          7         17  2.91216604E-02                    1_GWF-(1,11415)  1.12411469E-03                    1_GWF-(1,14800)
        318          7         18 -2.05085295E-02                    1_GWF-(1,11415)  1.46904879E-03                    1_GWF-(1,14801)
        319          7         19 -1.96454503E-02                    1_GWF-(1,11453)  1.31360807E-03                    1_GWF-(1,14800)
        320          7         20  2.33407168E-02                    1_GWF-(1,11415)  9.85153689E-04                    1_GWF-(1,14801)
        321          7         21 -2.12341754E-02                    1_GWF-(1,26486)  6.62184290E-04                    1_GWF-(1,14799)
        322          7         22 -2.04677492E-02                    1_GWF-(1,11453)  9.82700478E-04                    1_GWF-(1,14800)
        323          7         23  2.81105187E-02                    1_GWF-(1,11415)  1.60540985E-03                    1_GWF-(1,14801)
        324          7         24  2.20503992E-02                    1_GWF-(1,11438)  1.48509411E-03                    1_GWF-(1,14800)
        325          7         25 -2.60085396E-02                    1_GWF-(1,11453)  1.64094103E-03                    1_GWF-(1,14801)
        326          7         26  2.10755307E-02                    1_GWF-(1,11415)  1.12126721E-03                    1_GWF-(1,14800)
        327          7         27 -1.87840342E-02                    1_GWF-(1,11415)  7.14896791E-04                    1_GWF-(1,14801)
        328          7         28 -1.56003186E-02                    1_GWF-(1,11438)  5.65549042E-04                    1_GWF-(1,14799)
        329          7         29  1.64384043E-02                    1_GWF-(1,26649)  6.95776253E-04                    1_GWF-(1,14800)
        330          7         30  1.37170800E-02                    1_GWF-(1,26622)  1.12112972E-03                    1_GWF-(1,14801)
        331          7         31  2.16843700E-02                    1_GWF-(1,11417)  9.85399789E-04                    1_GWF-(1,14800)
        332          7         32 -1.45626349E-02                    1_GWF-(1,11414)  8.80370743E-04                    1_GWF-(1,14801)
        333          7         33 -1.61004305E-02                    1_GWF-(1,11415)  1.08625055E-03                    1_GWF-(1,14799)
        334          7         34  1.69514547E-02                    1_GWF-(1,11417) -1.00282593E-03                    1_GWF-(1,14799)
        335          7         35 -1.87140674E-02                    1_GWF-(1,11417)  1.09835024E-03                    1_GWF-(1,14799)
        336          7         36 -1.05006440E-02                    1_GWF-(1,11415) -5.52953600E-04                    1_GWF-(1,14799)
        337          7         37  1.10624433E-02                    1_GWF-(1,11369)  3.95201303E-04                    1_GWF-(1,14801)
        338          7         38 -1.65872142E-02                    1_GWF-(1,11414)  5.93769446E-04                    1_GWF-(1,14799)
        339          7         39 -1.19350974E-02                    1_GWF-(1,11422) -9.49376425E-04                    1_GWF-(1,14799)
        340          7         40  1.33926070E-02                    1_GWF-(1,11458)  1.52575167E-03                    1_GWF-(1,14799)
        341          7         41  1.42054877E-02                    1_GWF-(1,11416) -1.15730609E-03                    1_GWF-(1,14799)
        342          7         42 -1.23662291E-02                    1_GWF-(1,11416)  8.59982188E-04                    1_GWF-(1,14799)
        343          7         43  1.33571758E-02                    1_GWF-(1,11458)  2.03300745E-04                    1_GWF-(1,14800)
        344          7         44  1.34471704E-02                    1_GWF-(1,11416)  5.05561163E-04                    1_GWF-(1,14798)
        345          7         45 -1.37025044E-02                    1_GWF-(1,11416)  1.15049345E-03                    1_GWF-(1,14799)
        346          7         46  1.44565389E-02                    1_GWF-(1,11458) -1.32198024E-03                    1_GWF-(1,14799)
        347          7         47 -1.32156596E-02                    1_GWF-(1,11458)  1.57881152E-03                    1_GWF-(1,14799)
        348          7         48 -1.48342173E-02                    1_GWF-(1,11416) -1.47555504E-03                    1_GWF-(1,14799)
        349          7         49  9.50223007E-03                    1_GWF-(1,11416)  1.75994478E-03                    1_GWF-(1,14799)
        350          7         50 -1.49873557E-02                    1_GWF-(1,11458) -1.55102415E-03                    1_GWF-(1,14799)
        351          8          1 -5.89283058E-02                    1_GWF-(1,11371)  4.89904665E-04                    1_GWF-(1,14799)
        352          8          2 -2.78743521E-02                    1_GWF-(1,11372) -1.34811286E-03                    1_GWF-(1,14799)
        353          8          3  2.14397716E-02                    1_GWF-(1,11372)  1.73308729E-03                    1_GWF-(1,14799)
        354          8          4  1.85466565E-02                    1_GWF-(1,11367) -1.66940063E-03                    1_GWF-(1,14799)
        355          8          5 -1.84919173E-02                    1_GWF-(1,11372)  1.56072655E-03                    1_GWF-(1,14799)
        356          8          6 -1.60546678E-02                    1_GWF-(1,11367) -1.05597178E-03                    1_GWF-(1,14799)
        357          8          7  2.07954077E-02                    1_GWF-(1,11367)  7.41004900E-04                    1_GWF-(1,14799)
        358          8          8  1.49834563E-02                    1_GWF-(1,11368)  2.01314452E-04                    1_GWF-(1,14801)
        359          8          9  1.01839413E-02                    1_GWF-(1,11450) -4.00717589E-04                    1_GWF-(1,14799)
        360          8         10  1.59979039E-02                    1_GWF-(1,11367)  9.10687750E-04                    1_GWF-(1,14799)
        361          8         11  1.63198239E-02                    1_GWF-(1,11368) -8.87323628E-04                    1_GWF-(1,14799)
        362          8         12 -1.41320001E-02                    1_GWF-(1,11368)  9.37355442E-04                    1_GWF-(1,14799)
        363          8         13 -1.38726597E-02                    1_GWF-(1,11451) -6.08377014E-04                    1_GWF-(1,14799)
        364          8         14 -1.16971753E-02                    1_GWF-(1,11452)  2.86781845E-04                    1_GWF-(1,14799)
        365          8         15 -1.34562546E-02                    1_GWF-(1,11368)  2.15656541E-04                    1_GWF-(1,14799)
        366          8         16 -1.35691772E-02                    1_GWF-(1,11451) -5.08607739E-04                    1_GWF-(1,14799)
        367          8         17 -1.09206175E-02                    1_GWF-(1,11452)  6.47807728E-04                    1_GWF-(1,14799)
        368          8         18 -9.37612016E-03                    1_GWF-(1,11368) -5.71938911E-04                    1_GWF-(1,14799)
        369          8         19 -1.15240340E-02                    1_GWF-(1,11451)  5.68874180E-04                    1_GWF-(1,14799)
        370          8         20 -1.07227259E-02                    1_GWF-(1,11452)  3.77146052E-04                    1_GWF-(1,14801)
        371          8         21  1.02154926E-02                    1_GWF-(1,11452)  3.76048376E-04                    1_GWF-(1,14800)
        372          8         22  7.71684361E-03                    1_GWF-(1,11415)  3.78399398E-04                    1_GWF-(1,14801)
        373          8         23  7.86420826E-03                    1_GWF-(1,11438)  1.38213828E-04                    1_GWF-(1,14800)
        374          8         24  6.05355049E-03                    1_GWF-(1,11452)  2.42030723E-04                    1_GWF-(1,14799)
        375          8         25  8.01484415E-03                    1_GWF-(1,11425)  4.81079857E-04                    1_GWF-(1,14801)
        376          8         26  8.66579298E-03                    1_GWF-(1,11438)  4.42334730E-04                    1_GWF-(1,14800)
        377          8         27 -7.77164625E-03                    1_GWF-(1,11453)  6.04968765E-04                    1_GWF-(1,14801)
        378          8         28  9.62541876E-03                    1_GWF-(1,11453)  4.58010642E-04                    1_GWF-(1,14800)
        379          8         29  8.15106727E-03                    1_GWF-(1,11423)  3.58275938E-04                    1_GWF-(1,14801)
        380          8         30  6.90481204E-03                    1_GWF-(1,11417)  1.34444501E-04                    1_GWF-(1,14798)
        381          8         31  6.51078438E-03                    1_GWF-(1,26487)  1.98334779E-04                    1_GWF-(1,14800)
        382          8         32  6.73321229E-03                    1_GWF-(1,11416)  3.50183465E-04                    1_GWF-(1,14801)
        383          8         33  8.14490229E-03                    1_GWF-(1,11417)  3.36202822E-04                    1_GWF-(1,14800)
        384          8         34  5.93986965E-03                    1_GWF-(1,11415)  4.17068498E-04                    1_GWF-(1,14801)
        385          8         35  7.99432444E-03                    1_GWF-(1,11416)  2.81818087E-04                    1_GWF-(1,14800)
        386          8         36  6.04973828E-03                    1_GWF-(1,11417)  2.92032833E-04                    1_GWF-(1,14799)
        387          8         37 -7.48566798E-03                    1_GWF-(1,11417)  1.76626470E-04                    1_GWF-(1,14798)
        388          8         38  8.57899576E-03                    1_GWF-(1,11416)  2.80283888E-04                    1_GWF-(1,14799)
        389          8         39 -9.37664187E-03                    1_GWF-(1,11416)  1.43881834E-04                    1_GWF-(1,14798)
        390          8         40 -5.64002503E-03                    1_GWF-(1,11417)  2.02342140E-04                    1_GWF-(1,14800)
        391          8         41  6.87464680E-03                    1_GWF-(1,11417)  3.57054199E-04                    1_GWF-(1,14801)
        392          8         42 -7.52838351E-03                    1_GWF-(1,11416)  3.41958926E-04                    1_GWF-(1,14800)
        393          8         43  5.56979136E-03                    1_GWF-(1,11416)  4.25398969E-04                    1_GWF-(1,14801)
        394          8         44 -5.87497249E-03                    1_GWF-(1,11436)  4.23944935E-04                    1_GWF-(1,14800)
        395          8         45  5.93051137E-03                    1_GWF-(1,11438)  4.69752423E-04                    1_GWF-(1,14801)
        396          8         46 -4.49141088E-03                    1_GWF-(1,11438) -3.80726344E-04                    1_GWF-(1,14801)
        397          8         47  4.16030007E-03                    1_GWF-(1,11369)  4.12819987E-04                    1_GWF-(1,14801)
        398          8         48  6.04198979E-03                    1_GWF-(1,11436)  3.45559896E-04                    1_GWF-(1,14800)
        399          8         49 -4.41214872E-03                    1_GWF-(1,11436)  2.92615720E-04                    1_GWF-(1,14801)
        400          8         50  4.95309204E-03                    1_GWF-(1,11414) -2.64688538E-04                    1_GWF-(1,14801)
        401          9          1 -4.83111854E-03                    1_GWF-(1,11458)  3.54083215E-04                    1_GWF-(1,14801)
        402          9          2 -2.32644629E-03                    1_GWF-(1,11412)  2.88547821E-04                    1_GWF-(1,14800)
        403          9          3  3.01361251E-03                    1_GWF-(1,11414)  3.31341076E-04                    1_GWF-(1,14801)
        404          9          4 -5.06011757E-03                    1_GWF-(1,11369)  3.05205315E-04                    1_GWF-(1,14800)
        405          9          5  4.89007553E-03                    1_GWF-(1,11458)  3.89058641E-04                    1_GWF-(1,14801)
        406          9          6  3.56996307E-03                    1_GWF-(1,11417) -3.45411758E-04                    1_GWF-(1,14801)
        407          9          7 -3.34142197E-03                    1_GWF-(1,11424)  3.86331351E-04                    1_GWF-(1,14801)
        408          9          8  4.01861154E-03                    1_GWF-(1,11458)  3.16757447E-04                    1_GWF-(1,14800)
        409          9          9 -3.49120388E-03                    1_GWF-(1,11458)  2.78155251E-04                    1_GWF-(1,14801)
        410          9         10 -5.21601917E-03                    1_GWF-(1,11417)  1.67049981E-04                    1_GWF-(1,14800)
        411          9         11 -5.61243951E-03                    1_GWF-(1,11438)  1.18398670E-04                    1_GWF-(1,14801)
        412          9         12  3.36667656E-03                    1_GWF-(1,11438)  1.80829957E-04                    1_GWF-(1,14799)
        413          9         13  3.01111672E-03                    1_GWF-(1,26422)  1.18395422E-04                    1_GWF-(1,14798)
        414          9         14 -4.58029825E-03                    1_GWF-(1,11438)  1.67755036E-04                    1_GWF-(1,14799)
        415          9         15  4.40475653E-03                    1_GWF-(1,11438)  1.43731235E-04                    1_GWF-(1,14800)
        416          9         16  2.43383707E-03                    1_GWF-(1,26544)  1.29886831E-04                    1_GWF-(1,14801)
        417          9         17 -3.32224189E-03                    1_GWF-(1,11438)  8.10044625E-05                    1_GWF-(1,14799)
        418          9         18  3.72361697E-03                    1_GWF-(1,11438)  1.28346700E-04                    1_GWF-(1,14800)
        419          9         19 -3.37072794E-03                    1_GWF-(1,11416)  2.25508444E-04                    1_GWF-(1,14801)
        420          9         20 -4.05865245E-03                    1_GWF-(1,11438) -2.19583768E-04                    1_GWF-(1,14801)
        421          9         21  5.19494446E-03                    1_GWF-(1,11438)  2.52456096E-04                    1_GWF-(1,14801)
        422          9         22  3.39228395E-03                    1_GWF-(1,11436)  2.45715256E-04                    1_GWF-(1,14800)
        423          9         23 -3.58051507E-03                    1_GWF-(1,11415)  2.38498305E-04                    1_GWF-(1,14801)
        424          9         24  3.69022128E-03                    1_GWF-(1,11438)  1.25519290E-04                    1_GWF-(1,14800)
        425          9         25 -2.94464621E-03                    1_GWF-(1,11438)  6.69258887E-05                    1_GWF-(1,14798)
        426          9         26 -2.45308129E-03                    1_GWF-(1,11415)  1.39496663E-04                    1_GWF-(1,14801)
        427          9         27  3.45120278E-03                    1_GWF-(1,11438) -1.83294086E-04                    1_GWF-(1,14801)
        428          9         28  2.92505303E-03                    1_GWF-(1,11436)  2.05279240E-04                    1_GWF-(1,14801)
        429          9         29 -2.90955361E-03                    1_GWF-(1,11415)  1.66190792E-04                    1_GWF-(1,14800)
        430          9         30 -2.47080971E-03                    1_GWF-(1,11452)  1.16325522E-04                    1_GWF-(1,14801)
        431          9         31 -2.73254783E-03                    1_GWF-(1,11438)  1.32751978E-04                    1_GWF-(1,14799)
        432          9         32  2.77543127E-03                    1_GWF-(1,11451) -1.02341781E-04                    1_GWF-(1,14799)
        433          9         33 -1.87026201E-03                    1_GWF-(1,11434)  8.48788396E-05                    1_GWF-(1,14799)
        434          9         34 -2.68714524E-03                    1_GWF-(1,11416) -9.63854822E-05                    1_GWF-(1,14801)
        435          9         35  3.34622797E-03                    1_GWF-(1,11451)  1.27977215E-04                    1_GWF-(1,14801)
        436          9         36  2.90354650E-03                    1_GWF-(1,11414)  2.07711344E-04                    1_GWF-(1,14799)
        437          9         37 -2.95812894E-03                    1_GWF-(1,11416) -2.19122282E-04                    1_GWF-(1,14799)
        438          9         38  3.23870859E-03                    1_GWF-(1,11451)  2.42575003E-04                    1_GWF-(1,14799)
        439          9         39 -2.59892150E-03                    1_GWF-(1,11451) -1.80688496E-04                    1_GWF-(1,14799)
        440          9         40 -2.18847464E-03                    1_GWF-(1,11368)  1.69437996E-04                    1_GWF-(1,14799)
        441          9         41 -2.34534863E-03                    1_GWF-(1,11367) -4.26552938E-05                    1_GWF-(1,14799)
        442          9         42 -2.02435366E-03                    1_GWF-(1,11451)  6.70264326E-05                    1_GWF-(1,14801)
        443          9         43 -2.16760340E-03                    1_GWF-(1,11368)  1.68068594E-04                    1_GWF-(1,14799)
        444          9         44 -2.70897786E-03                    1_GWF-(1,11367) -1.95553167E-04                    1_GWF-(1,14799)
        445          9         45  1.87282237E-03                    1_GWF-(1,11367)  2.43840355E-04                    1_GWF-(1,14799)
        446          9         46  2.30272313E-03                    1_GWF-(1,11372) -2.54241853E-04                    1_GWF-(1,14799)
        447          9         47 -2.09081801E-03                    1_GWF-(1,11367)  3.00229871E-04                    1_GWF-(1,14799)
        448          9         48 -2.09782690E-03                    1_GWF-(1,11372) -2.66790490E-04                    1_GWF-(1,14799)
        449          9         49  3.04152937E-03                    1_GWF-(1,11372)  1.49120489E-04                    1_GWF-(1,14799)
        450          9         50  2.16079463E-03                    1_GWF-(1,11453) -2.26293775E-04                    1_GWF-(1,14799)
        451         10          1  4.73517116E-02                    1_GWF-(1,11431)  7.29080498E-05                    1_GWF-(1,14799)
        452         10          2  9.68300906E-03                    1_GWF-(1,11436) -6.52642019E-05                    1_GWF-(1,14799)
        453         10          3 -4.94580348E-03                    1_GWF-(1,11436)  1.37636394E-04                    1_GWF-(1,14799)
        454         10          4 -6.77269060E-03                    1_GWF-(1,11435) -1.72751190E-04                    1_GWF-(1,14799)
        455         10          5 -4.05150991E-03                    1_GWF-(1,11416)  2.43641119E-04                    1_GWF-(1,14799)
        456         10          6  3.18966157E-03                    1_GWF-(1,11416) -2.42134706E-04                    1_GWF-(1,14799)
        457         10          7 -4.55124330E-03                    1_GWF-(1,11435)  2.35495846E-04                    1_GWF-(1,14799)
        458         10          8  3.88466680E-03                    1_GWF-(1,11435) -1.46690481E-04                    1_GWF-(1,14799)
        459         10          9  3.94285137E-03                    1_GWF-(1,11416)  9.74278176E-05                    1_GWF-(1,14799)
        460         10         10  3.11408029E-03                    1_GWF-(1,11415)  1.87980373E-05                    1_GWF-(1,14801)
        461         10         11  2.08278474E-03                    1_GWF-(1,11435) -7.66542153E-05                    1_GWF-(1,14799)
        462         10         12  3.33253770E-03                    1_GWF-(1,11416)  1.44084629E-04                    1_GWF-(1,14799)
        463         10         13  3.11109060E-03                    1_GWF-(1,11415) -1.34549561E-04                    1_GWF-(1,14799)
        464         10         14  1.83767602E-03                    1_GWF-(1,11452)  1.29560105E-04                    1_GWF-(1,14799)
        465         10         15  2.45635297E-03                    1_GWF-(1,11416) -8.63201884E-05                    1_GWF-(1,14799)
        466         10         16  2.11665528E-03                    1_GWF-(1,11415)  4.01661099E-05                    1_GWF-(1,14799)
        467         10         17  1.44548167E-03                    1_GWF-(1,11452)  4.35753881E-05                    1_GWF-(1,14799)
        468         10         18  1.37312001E-03                    1_GWF-(1,11416) -7.22864458E-05                    1_GWF-(1,14799)
        469         10         19  1.82809233E-03                    1_GWF-(1,11415)  9.57434345E-05                    1_GWF-(1,14799)
        470         10         20  1.46091442E-03                    1_GWF-(1,11452) -6.21214474E-05                    1_GWF-(1,14799)
        471         10         21 -1.14762437E-03                    1_GWF-(1,11414)  4.69510011E-05                    1_GWF-(1,14800)
        472         10         22  1.37768692E-03                    1_GWF-(1,11415)  4.43811892E-05                    1_GWF-(1,14801)
        473         10         23  1.27306189E-03                    1_GWF-(1,11452)  2.90934013E-05                    1_GWF-(1,14798)
        474         10         24  1.01982512E-03                    1_GWF-(1,11458)  5.34900424E-05                    1_GWF-(1,14799)
        475         10         25  1.22656903E-03                    1_GWF-(1,11415)  5.61030295E-05                    1_GWF-(1,14801)
        476         10         26 -1.35873966E-03                    1_GWF-(1,11415)  6.23613308E-05                    1_GWF-(1,14800)
        477         10         27 -1.45153594E-03                    1_GWF-(1,11452)  6.73181510E-05                    1_GWF-(1,14801)
        478         10         28 -1.11230334E-03                    1_GWF-(1,11458)  6.70467675E-05                    1_GWF-(1,14800)
        479         10         29 -9.13552613E-04                    1_GWF-(1,11368)  5.95849067E-05                    1_GWF-(1,14801)
        480         10         30 -8.13333282E-04                    1_GWF-(1,11454)  2.03915398E-05                    1_GWF-(1,14798)
        481         10         31  8.54435001E-04                    1_GWF-(1,26487)  2.94032663E-05                    1_GWF-(1,14800)
        482         10         32 -8.24486258E-04                    1_GWF-(1,11368)  5.58146396E-05                    1_GWF-(1,14801)
        483         10         33 -9.35972978E-04                    1_GWF-(1,11454)  5.33359671E-05                    1_GWF-(1,14800)
        484         10         34  6.20864478E-04                    1_GWF-(1,11413)  6.26198707E-05                    1_GWF-(1,14801)
        485         10         35 -7.97113975E-04                    1_GWF-(1,11368)  4.84372472E-05                    1_GWF-(1,14800)
        486         10         36  7.44996928E-04                    1_GWF-(1,11368)  4.80666592E-05                    1_GWF-(1,14799)
        487         10         37  7.76281343E-04                    1_GWF-(1,11454) -3.53086078E-05                    1_GWF-(1,14799)
        488         10         38 -6.36088436E-04                    1_GWF-(1,26422)  4.78851525E-05                    1_GWF-(1,14799)
        489         10         39  6.64753659E-04                    1_GWF-(1,11368)  3.32234309E-05                    1_GWF-(1,14798)
        490         10         40 -7.74063922E-04                    1_GWF-(1,11458)  3.15874978E-05                    1_GWF-(1,14799)
        491         10         41 -6.48572570E-04                    1_GWF-(1,11454)  2.41882514E-05                    1_GWF-(1,14801)
        492         10         42 -5.43347599E-04                    1_GWF-(1,11369)  3.62178082E-05                    1_GWF-(1,14800)
        493         10         43 -7.45522869E-04                    1_GWF-(1,11458)  4.95022235E-05                    1_GWF-(1,14801)
        494         10         44  5.29214708E-04                    1_GWF-(1,26350) -5.22770160E-05                    1_GWF-(1,14801)
        495         10         45 -5.96225715E-04                    1_GWF-(1,11369)  6.62980252E-05                    1_GWF-(1,14801)
        496         10         46  5.46157059E-04                    1_GWF-(1,11438)  5.92466060E-05                    1_GWF-(1,14800)
        497         10         47  6.17672860E-04                    1_GWF-(1,11458)  6.91825611E-05                    1_GWF-(1,14801)
        498         10         48  4.23277238E-04                    1_GWF-(1,11453)  5.12441924E-05                    1_GWF-(1,14800)
        499         10         49 -4.21416603E-04                    1_GWF-(1,11367)  5.63991796E-05                    1_GWF-(1,14801)
        500         10         50 -6.49615505E-04                    1_GWF-(1,11438)  4.09783054E-05                    1_GWF-(1,14800)
        501         11          1 -4.68561767E-02                    1_GWF-(1,11431)  1.54120849E-05                    1_GWF-(1,14801)
        502         11          2 -6.13563144E-03                    1_GWF-(1,11436)  9.50784932E-06                    1_GWF-(1,14800)
        503         11          3 -2.64165488E-03                    1_GWF-(1,11435)  1.51970380E-05                    1_GWF-(1,14801)
        504         11          4  2.29065768E-03                    1_GWF-(1,11435)  2.30642856E-05                    1_GWF-(1,14800)
        505         11          5  2.26657267E-03                    1_GWF-(1,11416)  3.68590369E-05                    1_GWF-(1,14801)
        506         11          6  1.46383369E-03                    1_GWF-(1,11409)  4.34664357E-05                    1_GWF-(1,14800)
        507         11          7  1.23938606E-03                    1_GWF-(1,11435)  6.61577933E-05                    1_GWF-(1,14801)
        508         11          8 -1.08788984E-03                    1_GWF-(1,11435)  5.01679005E-05                    1_GWF-(1,14800)
        509         11          9 -1.31432479E-03                    1_GWF-(1,11416)  2.42855354E-05                    1_GWF-(1,14801)
        510         11         10 -9.91806146E-04                    1_GWF-(1,11415)  3.06308465E-05                    1_GWF-(1,14801)
        511         11         11  1.01171327E-03                    1_GWF-(1,11416)  5.24385577E-05                    1_GWF-(1,14800)
        512         11         12  1.01994613E-03                    1_GWF-(1,11415)  6.52714469E-05                    1_GWF-(1,14801)
        513         11         13 -1.04001692E-03                    1_GWF-(1,11415)  4.50234998E-05                    1_GWF-(1,14800)
        514         11         14 -8.38508022E-04                    1_GWF-(1,11452)  3.72056641E-05                    1_GWF-(1,14801)
        515         11         15 -8.07114683E-04                    1_GWF-(1,11416)  2.55408043E-05                    1_GWF-(1,14800)
        516         11         16 -9.07972592E-04                    1_GWF-(1,11415)  2.04066758E-05                    1_GWF-(1,14801)
        517         11         17 -6.66269512E-04                    1_GWF-(1,11452)  1.64896071E-05                    1_GWF-(1,14799)
        518         11         18  5.40193659E-04                    1_GWF-(1,11452)  1.28346248E-05                    1_GWF-(1,14798)
        519         11         19  5.46171631E-04                    1_GWF-(1,11409)  1.69335821E-05                    1_GWF-(1,14799)
        520         11         20  6.18241160E-04                    1_GWF-(1,11415)  1.57339497E-05                    1_GWF-(1,14800)
        521         11         21  4.93075863E-04                    1_GWF-(1,11452)  1.18740821E-05                    1_GWF-(1,14798)
        522         11         22 -5.84983533E-04                    1_GWF-(1,11415)  2.43490390E-05                    1_GWF-(1,14799)
        523         11         23 -6.25427352E-04                    1_GWF-(1,11452) -1.98768682E-05                    1_GWF-(1,14799)
        524         11         24  7.27184885E-04                    1_GWF-(1,11452)  2.86769735E-05                    1_GWF-(1,14799)
        525         11         25  6.54194757E-04                    1_GWF-(1,11451) -3.05761922E-05                    1_GWF-(1,14801)
        526         11         26  5.14752955E-04                    1_GWF-(1,11368)  3.58560598E-05                    1_GWF-(1,14801)
        527         11         27  4.11329832E-04                    1_GWF-(1,11454)  2.82071912E-05                    1_GWF-(1,14800)
[...]
        680         14         30 -1.97520856E-05                    1_GWF-(1,11438)  7.81305503E-07                    1_GWF-(1,14800)
        681         14         31 -1.46168454E-05                    1_GWF-(1,26622)  8.71662683E-07                    1_GWF-(1,14801)
        682         14         32  1.52612600E-05                    1_GWF-(1,11415)  4.53857198E-07                    1_GWF-(1,14798)
        683         14         33 -1.72206291E-05                    1_GWF-(1,11438)  5.43042105E-07                    1_GWF-(1,14799)
        684         14         34  2.09233406E-05                    1_GWF-(1,11451)  9.41328235E-07                    1_GWF-(1,14801)
        685         14         35  2.03760607E-05                    1_GWF-(1,11415)  1.20475530E-06                    1_GWF-(1,14800)
        686         14         36 -2.20859645E-05                    1_GWF-(1,11438)  1.76794940E-06                    1_GWF-(1,14801)
        687         14         37 -1.70321668E-05                    1_GWF-(1,11416)  1.76223804E-06                    1_GWF-(1,14800)
        688         14         38 -2.04651999E-05                    1_GWF-(1,11435)  1.94862743E-06                    1_GWF-(1,14801)
        689         14         39 -1.83801846E-05                    1_GWF-(1,11438)  1.16991885E-06                    1_GWF-(1,14800)
        690         14         40  1.99555417E-05                    1_GWF-(1,11435)  4.67979523E-07                    1_GWF-(1,14801)
        691         14         41 -2.64439775E-05                    1_GWF-(1,11435)  7.84070651E-07                    1_GWF-(1,14801)
        692         14         42  1.52045215E-05                    1_GWF-(1,11416)  1.13069182E-06                    1_GWF-(1,14800)
        693         14         43  2.73913376E-05                    1_GWF-(1,11435)  1.38086614E-06                    1_GWF-(1,14801)
        694         14         44 -2.64818679E-05                    1_GWF-(1,11435)  1.14676464E-06                    1_GWF-(1,14800)
        695         14         45 -2.62603762E-05                    1_GWF-(1,11436)  1.06451511E-06                    1_GWF-(1,14801)
        696         14         46 -2.20621140E-05                    1_GWF-(1,11410)  4.07473959E-07                    1_GWF-(1,14800)
        697         14         47 -2.51167409E-05                    1_GWF-(1,11413)  3.82467103E-07                    1_GWF-(1,14800)
        698         14         48 -3.11628076E-05                    1_GWF-(1,11436)  9.19835850E-07                    1_GWF-(1,14801)
        699         14         49  3.52810911E-05                    1_GWF-(1,11423)  9.86323177E-07                    1_GWF-(1,14800)
        700         14         50  5.34663697E-05                    1_GWF-(1,11436)  1.63939812E-06                    1_GWF-(1,14801)
        701         15          1 -5.58806671E-05                    1_GWF-(1,11436)  1.04345888E-06                    1_GWF-(1,14800)
        702         15          2 -3.05349547E-05                    1_GWF-(1,11423)  1.04012876E-06                    1_GWF-(1,14801)
        703         15          3  2.84251107E-05                    1_GWF-(1,11436)  4.53095918E-07                    1_GWF-(1,14800)
        704         15          4  2.25761713E-05                    1_GWF-(1,11413)  3.08886773E-07                    1_GWF-(1,14800)
        705         15          5  1.81080393E-05                    1_GWF-(1,11414)  8.84498116E-07                    1_GWF-(1,14801)
        706         15          6  1.75773088E-05                    1_GWF-(1,11436)  9.64774812E-07                    1_GWF-(1,14800)
        707         15          7  2.38112474E-05                    1_GWF-(1,11435)  1.14331398E-06                    1_GWF-(1,14801)
        708         15          8 -2.40536429E-05                    1_GWF-(1,11435)  9.21243111E-07                    1_GWF-(1,14800)
        709         15          9 -1.42898745E-05                    1_GWF-(1,11416)  6.97703175E-07                    1_GWF-(1,14801)
        710         15         10  1.71748378E-05                    1_GWF-(1,11435)  2.85278668E-07                    1_GWF-(1,14799)
        711         15         11 -1.42270091E-05                    1_GWF-(1,11435)  7.63031388E-07                    1_GWF-(1,14800)
        712         15         12 -1.51178540E-05                    1_GWF-(1,11416)  1.29120136E-06                    1_GWF-(1,14801)
        713         15         13 -1.49999288E-05                    1_GWF-(1,11415)  1.09931394E-06                    1_GWF-(1,14800)
        714         15         14 -1.08716310E-05                    1_GWF-(1,11450)  1.05591075E-06                    1_GWF-(1,14801)
        715         15         15 -1.42494917E-05                    1_GWF-(1,11416)  6.56263103E-07                    1_GWF-(1,14800)
        716         15         16 -1.15073095E-05                    1_GWF-(1,11415)  2.71959780E-07                    1_GWF-(1,14801)
        717         15         17 -6.45040602E-06                    1_GWF-(1,11451)  4.29211752E-07                    1_GWF-(1,14801)
        718         15         18 -7.84829123E-06                    1_GWF-(1,11416)  6.01654034E-07                    1_GWF-(1,14800)
        719         15         19  1.18920652E-05                    1_GWF-(1,11451)  6.87972860E-07                    1_GWF-(1,14801)
        720         15         20  7.95061794E-06                    1_GWF-(1,11396)  4.96403007E-07                    1_GWF-(1,14800)
        721         15         21 -8.15611644E-06                    1_GWF-(1,11416)  3.12058999E-07                    1_GWF-(1,14801)
        722         15         22 -1.14600107E-05                    1_GWF-(1,11415)  5.42859146E-07                    1_GWF-(1,14799)
        723         15         23 -1.05975208E-05                    1_GWF-(1,11451)  4.51501625E-07                    1_GWF-(1,14798)
        724         15         24 -8.43351990E-06                    1_GWF-(1,11458)  6.90492534E-07                    1_GWF-(1,14799)
        725         15         25  8.64360258E-06                    1_GWF-(1,11409)  5.71758432E-07                    1_GWF-(1,14800)
        726         15         26  9.89231829E-06                    1_GWF-(1,11415)  6.44696673E-07                    1_GWF-(1,14801)
        727         15         27 -6.33996131E-06                    1_GWF-(1,11369)  3.65325915E-07                    1_GWF-(1,14800)
        728         15         28  7.87895020E-06                    1_GWF-(1,11409)  2.15199521E-07                    1_GWF-(1,14798)
        729         15         29 -7.92473410E-06                    1_GWF-(1,11409)  4.61693058E-07                    1_GWF-(1,14799)
        730         15         30  6.09555866E-06                    1_GWF-(1,11454) -4.02952580E-07                    1_GWF-(1,14799)
        731         15         31 -6.77947484E-06                    1_GWF-(1,11454)  5.37056553E-07                    1_GWF-(1,14801)
        732         15         32 -8.41927928E-06                    1_GWF-(1,11409)  5.04801584E-07                    1_GWF-(1,14800)
        733         15         33  5.43818763E-06                    1_GWF-(1,11452)  4.11228566E-07                    1_GWF-(1,14801)
        734         15         34 -5.50743883E-06                    1_GWF-(1,11454)  2.47863570E-07                    1_GWF-(1,14799)
        735         15         35 -6.79597815E-06                    1_GWF-(1,11409)  3.43339621E-07                    1_GWF-(1,14800)
        736         15         36 -5.57496648E-06                    1_GWF-(1,11417)  6.15062044E-07                    1_GWF-(1,14801)
        737         15         37 -7.14696294E-06                    1_GWF-(1,11413) -5.79260438E-07                    1_GWF-(1,14801)
        738         15         38 -7.23597783E-06                    1_GWF-(1,11409)  6.05909240E-07                    1_GWF-(1,14801)
        739         15         39 -6.43600138E-06                    1_GWF-(1,11414)  5.57477943E-07                    1_GWF-(1,14800)
        740         15         40  8.71324158E-06                    1_GWF-(1,11425)  5.27478127E-07                    1_GWF-(1,14801)
        741         15         41  7.13074550E-06                    1_GWF-(1,11413)  3.79478802E-07                    1_GWF-(1,14799)
        742         15         42 -5.41823525E-06                    1_GWF-(1,11368) -3.34697026E-07                    1_GWF-(1,14799)
        743         15         43  6.86195026E-06                    1_GWF-(1,11425)  3.29605386E-07                    1_GWF-(1,14799)
        744         15         44  5.30900213E-06                    1_GWF-(1,11438)  1.31265793E-07                    1_GWF-(1,14800)
        745         15         45 -4.45515551E-06                    1_GWF-(1,26543)  2.50250286E-07                    1_GWF-(1,14801)
        746         15         46  7.05330383E-06                    1_GWF-(1,11425)  3.11838383E-07                    1_GWF-(1,14799)
        747         15         47  5.74813331E-06                    1_GWF-(1,11438) -4.19067436E-07                    1_GWF-(1,14799)
        748         15         48  3.95760885E-06                    1_GWF-(1,26420)  5.07775957E-07                    1_GWF-(1,14799)
        749         15         49  4.93277112E-06                    1_GWF-(1,11425)  1.52484959E-07                    1_GWF-(1,14798)
        750         15         50  3.79217197E-06                    1_GWF-(1,11438)  1.37513028E-07                    1_GWF-(1,14801)
        751         16          1 -2.88160426E-06                    1_GWF-(1,26420)  2.36989709E-07                    1_GWF-(1,14799)
        752         16          2 -3.52850106E-06                    1_GWF-(1,26487)  1.08923324E-07                    1_GWF-(1,14798)
        753         16          3  4.44548400E-06                    1_GWF-(1,11438)  1.32068322E-07                    1_GWF-(1,14801)
        754         16          4 -4.76597467E-06                    1_GWF-(1,11438)  2.27694364E-07                    1_GWF-(1,14799)
        755         16          5 -2.29777863E-06                    1_GWF-(1,26486)  2.35438299E-07                    1_GWF-(1,14801)
        756         16          6  4.19383073E-06                    1_GWF-(1,11438)  2.32302269E-07                    1_GWF-(1,14799)
        757         16          7  3.89391283E-06                    1_GWF-(1,26588) -9.40886296E-08                    1_GWF-(1,10967)
        758         16          8 -3.97654430E-06                    1_GWF-(1,26588)  1.60919740E-07                    1_GWF-(1,14801)
        759         16          9  5.24117726E-06                    1_GWF-(1,11438)  3.12595614E-07                    1_GWF-(1,14799)
        760         16         10  4.06584909E-06                    1_GWF-(1,11369)  3.47101308E-07                    1_GWF-(1,14801)
        761         16         11 -3.06124337E-06                    1_GWF-(1,11411)  4.13900450E-07                    1_GWF-(1,14800)
        762         16         12 -4.11927421E-06                    1_GWF-(1,11452)  4.25878247E-07                    1_GWF-(1,14801)
        763         16         13  5.06293934E-06                    1_GWF-(1,11458)  4.43353689E-07                    1_GWF-(1,14799)
        764         16         14  3.29867564E-06                    1_GWF-(1,11454)  3.82613495E-07                    1_GWF-(1,14801)
        765         16         15  3.71270902E-06                    1_GWF-(1,11368)  2.61356724E-07                    1_GWF-(1,14800)
        766         16         16  3.51693556E-06                    1_GWF-(1,11458)  9.30895893E-08                    1_GWF-(1,14801)
        767         16         17 -3.12799758E-06                    1_GWF-(1,26622)  1.34802431E-07                    1_GWF-(1,14798)
        768         16         18 -3.12876644E-06                    1_GWF-(1,26649)  2.33486521E-07                    1_GWF-(1,14799)
        769         16         19  3.18517416E-06                    1_GWF-(1,11458)  2.31892252E-07                    1_GWF-(1,14801)
        770         16         20 -2.51989631E-06                    1_GWF-(1,11369)  1.51358347E-07                    1_GWF-(1,14800)
        771         16         21  3.10731894E-06                    1_GWF-(1,11368)  5.14344331E-08                    1_GWF-(1,14801)
        772         16         22 -3.18753547E-06                    1_GWF-(1,11453)  9.89268156E-08                    1_GWF-(1,14801)
        773         16         23 -2.44618045E-06                    1_GWF-(1,11458)  2.12823310E-07                    1_GWF-(1,14799)
        774         16         24  2.29946208E-06                    1_GWF-(1,11368)  2.27912828E-07                    1_GWF-(1,14801)
        775         16         25 -3.41329561E-06                    1_GWF-(1,11453)  1.90426230E-07                    1_GWF-(1,14800)
        776         16         26  3.24420549E-06                    1_GWF-(1,11453)  1.55602645E-07                    1_GWF-(1,14801)
        777         16         27  3.32230875E-06                    1_GWF-(1,11415)  8.63472635E-08                    1_GWF-(1,14800)
        778         16         28  3.02740864E-06                    1_GWF-(1,11417)  8.24377433E-08                    1_GWF-(1,14799)
        779         16         29  3.09102832E-06                    1_GWF-(1,11453)  9.31253231E-08                    1_GWF-(1,14798)
        780         16         30 -2.32132060E-06                    1_GWF-(1,11452)  1.10941769E-07                    1_GWF-(1,14799)
        781         16         31 -2.14665666E-06                    1_GWF-(1,11453)  6.28985285E-08                    1_GWF-(1,14801)
        782         16         32 -2.01381122E-06                    1_GWF-(1,11416)  5.08807928E-08                    1_GWF-(1,14798)
        783         16         33 -2.68532244E-06                    1_GWF-(1,11452)  1.25493008E-07                    1_GWF-(1,14799)
        784         16         34 -2.38644847E-06                    1_GWF-(1,11415)  1.13487193E-07                    1_GWF-(1,14798)
        785         16         35  2.42033189E-06                    1_GWF-(1,11438)  1.81163621E-07                    1_GWF-(1,14799)
        786         16         36  2.24482301E-06                    1_GWF-(1,11416)  1.56563827E-07                    1_GWF-(1,14801)
        787         16         37 -2.27638615E-06                    1_GWF-(1,11415)  1.83584150E-07                    1_GWF-(1,14799)
        788         16         38 -2.20083341E-06                    1_GWF-(1,11416)  1.29891117E-07                    1_GWF-(1,14801)
        789         16         39 -1.76066697E-06                    1_GWF-(1,26487)  3.22929535E-08                    1_GWF-(1,14798)
        790         16         40 -2.20740722E-06                    1_GWF-(1,11415)  1.33557986E-07                    1_GWF-(1,14799)
        791         16         41 -2.22071375E-06                    1_GWF-(1,11416)  1.44603606E-07                    1_GWF-(1,14801)
        792         16         42 -1.59688230E-06                    1_GWF-(1,11435)  1.40045797E-07                    1_GWF-(1,14799)
        793         16         43  2.93088004E-06                    1_GWF-(1,11435)  1.19871593E-07                    1_GWF-(1,14801)
        794         16         44  2.50679061E-06                    1_GWF-(1,11409)  8.37198529E-08                    1_GWF-(1,14800)
        795         16         45  1.87437327E-06                    1_GWF-(1,11416)  5.10112501E-08                    1_GWF-(1,14801)
        796         16         46 -2.20478562E-06                    1_GWF-(1,11409)  4.98025039E-08                    1_GWF-(1,14798)
        797         16         47 -2.46618790E-06                    1_GWF-(1,11414)  7.33640993E-08                    1_GWF-(1,14799)
        798         16         48 -2.42331601E-06                    1_GWF-(1,11435)  8.13088900E-08                    1_GWF-(1,14801)
        799         16         49  3.45170927E-06                    1_GWF-(1,11413)  6.56051248E-08                    1_GWF-(1,14800)
        800         16         50  4.78962080E-06                    1_GWF-(1,11436)  5.10357791E-08                    1_GWF-(1,14801)
        801         17          1 -4.13207073E-06                    1_GWF-(1,11434)  4.60881475E-08                    1_GWF-(1,14800)
        802         17          2 -2.93945650E-06                    1_GWF-(1,11423)  3.18090847E-08                    1_GWF-(1,14801)
        803         17          3  2.97245511E-06                    1_GWF-(1,11436)  3.48330489E-08                    1_GWF-(1,14799)
        804         17          4  2.31431930E-06                    1_GWF-(1,11401)  4.70305122E-08                    1_GWF-(1,14800)
        805         17          5  2.20169135E-06                    1_GWF-(1,11409)  5.78512564E-08                    1_GWF-(1,14801)
        806         17          6  1.86896510E-06                    1_GWF-(1,11436)  4.36372395E-08                    1_GWF-(1,14800)
        807         17          7 -1.88035298E-06                    1_GWF-(1,11409)  3.01004735E-08                    1_GWF-(1,14801)
        808         17          8 -1.55977377E-06                    1_GWF-(1,11435)  3.59336646E-08                    1_GWF-(1,14799)
        809         17          9  1.57006843E-06                    1_GWF-(1,11438)  5.00222674E-08                    1_GWF-(1,14800)
        810         17         10  2.29603847E-06                    1_GWF-(1,11435)  6.84815248E-08                    1_GWF-(1,14801)
        811         17         11 -1.47354140E-06                    1_GWF-(1,11435)  5.65996500E-08                    1_GWF-(1,14800)
        812         17         12  1.44257771E-06                    1_GWF-(1,11438)  4.57085259E-08                    1_GWF-(1,14801)
        813         17         13  1.44044224E-06                    1_GWF-(1,11435)  2.95845670E-08                    1_GWF-(1,14799)
        814         17         14 -1.07865986E-06                    1_GWF-(1,11450)  4.76212742E-08                    1_GWF-(1,14800)
        815         17         15  1.45947764E-06                    1_GWF-(1,11438)  7.14312441E-08                    1_GWF-(1,14801)
        816         17         16 -1.07144969E-06                    1_GWF-(1,11415)  5.64354105E-08                    1_GWF-(1,14800)
        817         17         17 -8.54559364E-07                    1_GWF-(1,11452)  3.17096330E-08                    1_GWF-(1,14801)
        818         18          1  1.13564374E-06                    1_GWF-(1,11438)  2.65362695E-08                    1_GWF-(1,14800)
        819         18          2  5.99394171E-07                    1_GWF-(1,26623)  2.27710351E-08                    1_GWF-(1,14799)
        820         19          1 -7.13278325E-07                    1_GWF-(1,11438)  2.10165724E-08                    1_GWF-(1,14799)
 --------------------------------------------------------------------------------------------------------------------------------------



 MEMORY MANAGER TOTAL STORAGE BY DATA TYPE, IN MEGABYTES
 -------------------------------
                    ALLOCATED   
 DATA TYPE           MEMORY     
 -------------------------------
 Character        4.66090000E-02
 Logical          4.40000000E-05
 Integer          5.2037920     
 Real             11.901376     
 -------------------------------
 Total            17.151821     
 -------------------------------


 
 Run end date and time (yyyy/mm/dd hh:mm:ss): 2022/06/01 19:47:29
 Elapsed run time:  0.725 Seconds
 Normal termination of simulation.
