                                   MODFLOW 6
                U.S. GEOLOGICAL SURVEY MODULAR HYDROLOGIC MODEL
                            VERSION 6.2.2 07/30/2021

   MODFLOW 6 compiled Jul 31 2021 14:22:53 with IFORT compiler (ver. 19.10.3)

This software has been approved for release by the U.S. Geological 
Survey (USGS). Although the software has been subjected to rigorous 
review, the USGS reserves the right to update the software as needed 
pursuant to further analysis and review. No warranty, expressed or 
implied, is made by the USGS or the U.S. Government as to the 
functionality of the software and related material nor shall the 
fact of release constitute any such warranty. Furthermore, the 
software is released on condition that neither the USGS nor the U.S. 
Government shall be held liable for any damages resulting from its 
authorized or unauthorized use. Also refer to the USGS Water 
Resources Software User Rights Notice for complete use, copyright, 
and distribution information.


System command used to initiate simulation:
mf6

MODFLOW was compiled using uniform precision.

Real Variables
  KIND: 8
  TINY (smallest non-zero value):    2.225074-308
  HUGE (largest value):    1.797693+308
  PRECISION: 15
  BIT SIZE: 64

Integer Variables
  KIND: 4
  HUGE (largest value): 2147483647
  BIT SIZE: 32

Long Integer Variables
  KIND: 8
  HUGE (largest value): 9223372036854775807
  BIT SIZE: 64

Logical Variables
  KIND: 4
  BIT SIZE: 32
 

 OPENED mfsim.nam
 FILE TYPE:NAM   UNIT 1001   STATUS:OLD                 
 FORMAT:FORMATTED              ACCESS:SEQUENTIAL          
 ACTION:READ                

 # File generated by Flopy version 3.3.5 on 04/25/2022 at 00:15:37.

 READING SIMULATION OPTIONS
 END OF SIMULATION OPTIONS

 READING SIMULATION TIMING

 OPENED mfsim.tdis
 FILE TYPE:TDIS   UNIT 1002   STATUS:OLD                 
 FORMAT:FORMATTED              ACCESS:SEQUENTIAL          
 ACTION:READ                


 TDIS -- TEMPORAL DISCRETIZATION PACKAGE,
 VERSION 1 : 11/13/2014 - INPUT READ FROM UNIT 1002
 # File generated by Flopy version 3.3.5 on 04/25/2022 at 00:15:37.
 PROCESSING TDIS OPTIONS
    SIMULATION TIME UNIT IS SECONDS
 END OF TDIS OPTIONS
 PROCESSING TDIS DIMENSIONS
    1 STRESS PERIOD(S) IN SIMULATION
 END OF TDIS DIMENSIONS
 PROCESSING TDIS PERIODDATA


 STRESS PERIOD     LENGTH       TIME STEPS     MULTIPLIER FOR DELT
 ----------------------------------------------------------------------------
        1         5.000000          1                    1.000
 END OF TDIS PERIODDATA
 END OF SIMULATION TIMING

 READING SIMULATION MODELS
    GWF6 model ML will be created as model 1
 END OF SIMULATION MODELS

 READING SIMULATION EXCHANGES
 END OF SIMULATION EXCHANGES

 READING SOLUTIONGROUP

 Creating solution: SLN_1           

 OPENED mfsim.ims
 FILE TYPE:IMS   UNIT 1015   STATUS:OLD                 
 FORMAT:FORMATTED              ACCESS:SEQUENTIAL          
 ACTION:READ                

 END OF SIMULATION SOLUTIONGROUP

 IMS -- ITERATIVE MODEL SOLUTION PACKAGE, VERSION 6, 4/28/2017
         INPUT READ FROM UNIT 1015
 # File generated by Flopy version 3.3.5 on 04/25/2022 at 00:15:37.

 PROCESSING IMS OPTIONS
 END OF IMS OPTIONS

 PROCESSING IMS NONLINEAR
 END OF IMS NONLINEAR DATA
 ***UNDER-RELAXATION WILL NOT BE USED***
 
 ***IMS LINEAR SOLVER WILL BE USED***

 IMSLINEAR -- UNSTRUCTURED LINEAR SOLUTION PACKAGE, VERSION 8, 04/28/2017

 PROCESSING LINEAR DATA
 END OF LINEAR DATA
 
 OUTER ITERATION CONVERGENCE CRITERION    (DVCLOSE) =    0.100000E-04
 MAXIMUM NUMBER OF OUTER ITERATIONS        (MXITER) = 100
 SOLVER PRINTOUT INDEX                     (IPRIMS) = 2
 NONLINEAR ITERATION METHOD            (NONLINMETH) = 0
 LINEAR SOLUTION METHOD                   (LINMETH) = 1

       SOLUTION BY THE        CONJUGATE-GRADIENT       METHOD
 ------------------------------------------------------------------
 MAXIMUM OF 100 CALLS OF SOLUTION ROUTINE
 MAXIMUM OF 50 INTERNAL ITERATIONS PER CALL TO SOLUTION ROUTINE
 LINEAR ACCELERATION METHOD            = CG        
 MATRIX PRECONDITIONING TYPE           = INCOMPLETE LU       
 MATRIX SCALING APPROACH               = NO SCALING          
 MATRIX REORDERING APPROACH            = ORIGINAL ORDERING        
 NUMBER OF ORTHOGONALIZATIONS          = 0
 HEAD CHANGE CRITERION FOR CLOSURE     =    0.10000E-05
 RESIDUAL CHANGE CRITERION FOR CLOSURE =    0.10000E-04
 RESIDUAL CONVERGENCE OPTION           = 1
 RESIDUAL CONVERGENCE NORM             = INFINITY NORM S 
 RELAXATION FACTOR                     =    0.00000E+00



 
    Solving:  Stress period:     1    Time step:     1
 
1
                            STRESS PERIOD NO. 1, LENGTH =   5.000000    
                            -----------------------------------------------
                            NUMBER OF TIME STEPS = 1
                            MULTIPLIER FOR DELT =     1.000
                            INITIAL TIME STEP SIZE =   5.000000    

 SLN_1 OUTER ITERATION SUMMARY
 ----------------------------------------------------------------------------------------------------------
                                OUTER      INNER                    STEP   MAXIMUM CHANGE MODEL-(CELLID) OR
 OUTER ITERATION STEP       ITERATION  ITERATION  MAXIMUM CHANGE SUCCESS             MODEL-PACKAGE-(NUMBER)
 ----------------------------------------------------------------------------------------------------------
 Model                              1         50       610.35429                            1_GWF-(1,26381)
 Model                              2         50      -607.66091                            1_GWF-(1,26381)
 Model                              3         50      -2.4732735                            1_GWF-(1,23178)
 Model                              4         50     -0.57127467                            1_GWF-(1,22353)
 Model                              5         50 -6.07117763E-02                            1_GWF-(1,11378)
 Model                              6         50 -8.88332706E-03                            1_GWF-(1,22352)
 Model                              7         50  1.10578398E-03                            1_GWF-(1,21839)
 Model                              8         50 -4.35351151E-04                            1_GWF-(1,22362)
 Model                              9         50 -3.93623278E-05                            1_GWF-(1,23310)
 Model                             10         27 -1.69482315E-05                            1_GWF-(1,22378)
 Model                             11          1  7.26992976E-07       *                    1_GWF-(1,26218)
 ----------------------------------------------------------------------------------------------------------


 11 CALLS TO NUMERICAL SOLUTION IN TIME STEP 1 STRESS PERIOD 1
 478 TOTAL ITERATIONS

 SLN_1 INNER ITERATION SUMMARY
 --------------------------------------------------------------------------------------------------------------------------------------
      TOTAL      OUTER      INNER                                                            MAXIMUM                                   
  ITERATION  ITERATION  ITERATION  MAXIMUM CHANGE      MAXIMUM CHANGE MODEL-(CELLID)        RESIDUAL    MAXIMUM RESIDUAL MODEL-(CELLID)
 --------------------------------------------------------------------------------------------------------------------------------------
          1          1          1       183.02684                    1_GWF-(1,26381)       1.9458678                     1_GWF-(1,7788)
          2          1          2       273.15264                    1_GWF-(1,26380)      -1.1320689                    1_GWF-(1,15907)
          3          1          3       157.68746                    1_GWF-(1,26444)      0.85946747                    1_GWF-(1,15907)
          4          1          4       83.392747                    1_GWF-(1,26380)      0.57243521                    1_GWF-(1,15226)
          5          1          5       66.820210                    1_GWF-(1,26520)     -0.37928860                    1_GWF-(1,15221)
          6          1          6       60.510432                    1_GWF-(1,26572)      0.45996711                    1_GWF-(1,15216)
          7          1          7       62.503738                    1_GWF-(1,26648)      0.40448871                    1_GWF-(1,15226)
          8          1          8       53.616666                    1_GWF-(1,26649)     -0.36403540                    1_GWF-(1,15226)
          9          1          9       39.081445                    1_GWF-(1,26589)      0.33144694                    1_GWF-(1,15221)
         10          1         10       32.676654                    1_GWF-(1,26543)     -0.17091209                    1_GWF-(1,15216)
         11          1         11       24.859366                    1_GWF-(1,26544)     -0.15655616                    1_GWF-(1,15226)
         12          1         12       20.998040                    1_GWF-(1,26420)      0.19837453                    1_GWF-(1,15221)
         13          1         13       18.473979                    1_GWF-(1,26422) -6.96540169E-02                    1_GWF-(1,15216)
         14          1         14       13.349332                    1_GWF-(1,26350) -9.22668362E-02                    1_GWF-(1,15221)
         15          1         15       8.5983991                    1_GWF-(1,26218)  9.96372360E-02                    1_GWF-(1,15221)
         16          1         16      -8.2445692                    1_GWF-(1,26622)  4.53938613E-02                    1_GWF-(1,11047)
         17          1         17      -6.5355682                    1_GWF-(1,26623)     -0.11808532                    1_GWF-(1,15221)
         18          1         18      -6.1787178                    1_GWF-(1,26543)      0.12152957                    1_GWF-(1,15221)
         19          1         19      -6.8589634                    1_GWF-(1,26588)  6.12506865E-02                    1_GWF-(1,11152)
         20          1         20       10.393338                    1_GWF-(1,26588)     -0.10777379                    1_GWF-(1,15221)
         21          1         21      -8.3508455                    1_GWF-(1,26588)  6.72534574E-02                    1_GWF-(1,15221)
         22          1         22      -8.7001625                    1_GWF-(1,26543)  7.44775299E-02                    1_GWF-(1,15910)
         23          1         23      -7.6928567                    1_GWF-(1,26544)     -0.11388863                    1_GWF-(1,15221)
         24          1         24      -11.086419                    1_GWF-(1,26486)  5.13541379E-02                    1_GWF-(1,15221)
         25          1         25      -10.317443                    1_GWF-(1,26487)  8.69652744E-02                    1_GWF-(1,15910)
         26          1         26       10.892219                    1_GWF-(1,26487) -9.02844090E-02                    1_GWF-(1,15221)
         27          1         27       10.589526                    1_GWF-(1,26420) -5.26036872E-02                    1_GWF-(1,11203)
         28          1         28       6.3410692                    1_GWF-(1,26487)  6.36590838E-02                    1_GWF-(1,15910)
         29          1         29       4.5202952                    1_GWF-(1,26542) -5.85736826E-02                    1_GWF-(1,15221)
         30          1         30       5.1601676                    1_GWF-(1,26623) -3.42774942E-02                    1_GWF-(1,11050)
         31          1         31       3.8564787                    1_GWF-(1,26586)  4.61322921E-02                    1_GWF-(1,15910)
         32          1         32       3.8966822                    1_GWF-(1,26422) -5.11479797E-02                    1_GWF-(1,11203)
         33          1         33       4.3575728                    1_GWF-(1,26544) -4.38682020E-02                    1_GWF-(1,11200)
         34          1         34       3.9379505                    1_GWF-(1,26665)  2.85900725E-02                    1_GWF-(1,15910)
         35          1         35       3.4886499                    1_GWF-(1,26350) -2.88253649E-02                    1_GWF-(1,15221)
         36          1         36       3.7819413                    1_GWF-(1,26422) -2.44658649E-02                    1_GWF-(1,11200)
         37          1         37      -2.7329754                    1_GWF-(1,26422) -2.39206786E-02                    1_GWF-(1,11152)
         38          1         38      -3.4721430                    1_GWF-(1,26350) -2.80349141E-02                    1_GWF-(1,15216)
         39          1         39      -2.3559878                    1_GWF-(1,26622) -3.53478120E-02                    1_GWF-(1,11206)
         40          1         40      -2.4153630                    1_GWF-(1,26648)  2.73651880E-02                    1_GWF-(1,11108)
         41          1         41      -1.8640854                    1_GWF-(1,26649)  2.92007952E-02                    1_GWF-(1,11159)
         42          1         42      -1.7073647                    1_GWF-(1,26623)  3.59977210E-02                    1_GWF-(1,11197)
         43          1         43      -1.6208494                    1_GWF-(1,26586) -3.21013142E-02                    1_GWF-(1,11206)
         44          1         44      -1.2304246                    1_GWF-(1,26543)  3.95881959E-02                    1_GWF-(1,11206)
         45          1         45      -1.2158305                    1_GWF-(1,26486)  2.39942745E-02                    1_GWF-(1,11201)
         46          1         46       1.0187407                    1_GWF-(1,26649) -2.12291761E-02                    1_GWF-(1,11201)
         47          1         47       1.1793581                    1_GWF-(1,26648) -2.18673802E-02                    1_GWF-(1,12427)
         48          1         48      -1.5712889                    1_GWF-(1,26218)  2.48259037E-02                    1_GWF-(1,11197)
         49          1         49      -1.6065333                    1_GWF-(1,26217) -1.71675907E-02                    1_GWF-(1,11206)
         50          1         50       1.1489573                    1_GWF-(1,26217)  1.34073739E-02                    1_GWF-(1,11206)
         51          2          1      -609.53073                    1_GWF-(1,26381)      -3.3977592                    1_GWF-(1,26381)
         52          2          2      -219.93320                    1_GWF-(1,26513)       1.1515101                    1_GWF-(1,26381)
         53          2          3      -104.62885                    1_GWF-(1,26440)      0.72239834                    1_GWF-(1,26506)
         54          2          4      -62.893445                    1_GWF-(1,26665)     -0.29511288                    1_GWF-(1,26506)
         55          2          5      -52.706436                    1_GWF-(1,26649)      0.28499120                    1_GWF-(1,26381)
         56          2          6      -45.619979                    1_GWF-(1,26589)     -0.30884451                    1_GWF-(1,26381)
         57          2          7      -41.545181                    1_GWF-(1,26588)     -0.25950310                    1_GWF-(1,26506)
         58          2          8      -32.151704                    1_GWF-(1,26544)      0.13356440                    1_GWF-(1,26506)
         59          2          9      -25.654180                    1_GWF-(1,26487)     -0.11619932                    1_GWF-(1,26381)
         60          2         10      -19.074837                    1_GWF-(1,26421)     -0.12238904                    1_GWF-(1,26506)
         61          2         11      -17.103631                    1_GWF-(1,26348)  5.25315617E-02                    1_GWF-(1,26665)
         62          2         12      -13.067583                    1_GWF-(1,26218) -7.81096452E-02                    1_GWF-(1,26381)
         63          2         13      -7.9507548                    1_GWF-(1,26218) -7.32390555E-02                    1_GWF-(1,26506)
         64          2         14      -6.6348551                    1_GWF-(1,26649)  2.96990007E-02                    1_GWF-(1,26551)
         65          2         15      -8.1059025                    1_GWF-(1,26622) -6.70042035E-02                    1_GWF-(1,26381)
         66          2         16      -8.4469189                    1_GWF-(1,26623) -7.82353162E-02                    1_GWF-(1,26506)
         67          2         17      -7.0773659                    1_GWF-(1,26622)  4.21528483E-02                    1_GWF-(1,26551)
         68          2         18       7.0611714                    1_GWF-(1,26422) -7.93962937E-02                    1_GWF-(1,26381)
         69          2         19       7.0664743                    1_GWF-(1,26588) -7.34198780E-02                    1_GWF-(1,26506)
         70          2         20       9.0244058                    1_GWF-(1,26543) -3.92911455E-02                    1_GWF-(1,26447)
         71          2         21       10.387150                    1_GWF-(1,26588) -9.06414210E-02                    1_GWF-(1,26381)
         72          2         22       10.304605                    1_GWF-(1,26543) -6.94032060E-02                    1_GWF-(1,26506)
         73          2         23       7.3768679                    1_GWF-(1,26542) -5.50225568E-02                    1_GWF-(1,26447)
         74          2         24      -7.9067845                    1_GWF-(1,26487) -9.87333071E-02                    1_GWF-(1,26381)
         75          2         25      -10.284903                    1_GWF-(1,26486) -5.40791760E-02                    1_GWF-(1,26506)
         76          2         26      -11.284849                    1_GWF-(1,26487)  8.01390484E-02                    1_GWF-(1,26381)
         77          2         27      -7.8351509                    1_GWF-(1,26486)      0.10253880                    1_GWF-(1,26506)
         78          2         28      -4.5897843                    1_GWF-(1,26477) -5.02265217E-02                    1_GWF-(1,26506)
         79          2         29      -3.0224779                    1_GWF-(1,26649)  3.78843620E-02                    1_GWF-(1,26381)
         80          2         30       3.1934203                    1_GWF-(1,26420)  6.27367374E-02                    1_GWF-(1,26506)
         81          2         31      -2.7721385                    1_GWF-(1,26663) -4.55045265E-02                    1_GWF-(1,26506)
         82          2         32      -2.9663075                    1_GWF-(1,26421) -2.25276674E-02                    1_GWF-(1,26378)
         83          2         33      -3.7841331                    1_GWF-(1,26350) -4.92606058E-02                    1_GWF-(1,26381)
         84          2         34      -2.8013980                    1_GWF-(1,26422) -5.12253678E-02                    1_GWF-(1,26506)
         85          2         35       3.7878583                    1_GWF-(1,26422) -2.46860899E-02                    1_GWF-(1,26378)
         86          2         36       3.2650068                    1_GWF-(1,26350) -3.48984983E-02                    1_GWF-(1,26381)
         87          2         37      -3.0735929                    1_GWF-(1,26350) -4.56504391E-02                    1_GWF-(1,26506)
         88          2         38       2.8346334                    1_GWF-(1,26350) -2.00867272E-02                    1_GWF-(1,26378)
         89          2         39       3.2970334                    1_GWF-(1,26422) -3.02331297E-02                    1_GWF-(1,26381)
         90          2         40       2.1841522                    1_GWF-(1,26350) -4.32068081E-02                    1_GWF-(1,26506)
         91          2         41       1.3623469                    1_GWF-(1,26217)  2.67852237E-02                    1_GWF-(1,26506)
         92          2         42      0.96600250                    1_GWF-(1,26218)  1.53907975E-02                    1_GWF-(1,26378)
         93          2         43       1.0486244                    1_GWF-(1,26663)  2.71099384E-02                    1_GWF-(1,26381)
         94          2         44     -0.90747067                    1_GWF-(1,26217)  2.79250120E-02                    1_GWF-(1,26506)
         95          2         45     -0.75408469                    1_GWF-(1,26192)  1.83885376E-02                     1_GWF-(1,9692)
         96          2         46     -0.64130522                    1_GWF-(1,26242)  2.96775881E-02                     1_GWF-(1,9691)
         97          2         47     -0.76747204                    1_GWF-(1,26218)  2.99219426E-02                     1_GWF-(1,9692)
         98          2         48      -1.0756232                    1_GWF-(1,26217)  5.34358872E-02                     1_GWF-(1,9691)
         99          2         49      0.73699084                    1_GWF-(1,25377) -6.36459258E-02                     1_GWF-(1,9691)
        100          2         50     -0.70161900                    1_GWF-(1,23037)  9.34051485E-02                     1_GWF-(1,9691)
        101          3          1      0.40006162                    1_GWF-(1,26674) -4.68628704E-02                     1_GWF-(1,9691)
        102          3          2      0.52557533                    1_GWF-(1,22782)      0.10443600                     1_GWF-(1,9691)
        103          3          3      0.67881094                    1_GWF-(1,26217) -9.23593101E-02                     1_GWF-(1,9691)
        104          3          4      0.70943017                    1_GWF-(1,26218)  9.21815302E-02                     1_GWF-(1,9691)
        105          3          5      0.41353469                    1_GWF-(1,26422) -9.11501846E-02                     1_GWF-(1,9691)
        106          3          6     -0.37893330                    1_GWF-(1,26217)      0.11292347                     1_GWF-(1,9691)
        107          3          7      0.40478130                    1_GWF-(1,26194) -9.39690706E-02                     1_GWF-(1,9691)
        108          3          8     -0.29157608                    1_GWF-(1,26659)  9.34819748E-02                     1_GWF-(1,9691)
        109          3          9      0.41508049                    1_GWF-(1,13206) -8.29986619E-02                     1_GWF-(1,9691)
        110          3         10      0.41498710                    1_GWF-(1,13192)  8.88385172E-02                     1_GWF-(1,9691)
        111          3         11     -0.40559189                    1_GWF-(1,26543) -7.06797065E-02                     1_GWF-(1,9691)
        112          3         12      0.52297810                    1_GWF-(1,26648)  6.87361283E-02                     1_GWF-(1,9691)
        113          3         13     -0.39273496                    1_GWF-(1,26623) -5.51087047E-02                     1_GWF-(1,9691)
        114          3         14     -0.40187999                    1_GWF-(1,26649)  5.31245670E-02                     1_GWF-(1,9691)
        115          3         15     -0.59805965                    1_GWF-(1,26648) -3.66464806E-02                     1_GWF-(1,9691)
        116          3         16     -0.51967526                    1_GWF-(1,26665)  3.68489701E-02                     1_GWF-(1,9691)
        117          3         17     -0.41948947                    1_GWF-(1,26674)  2.12988178E-02                     1_GWF-(1,9692)
        118          3         18      0.28291926                    1_GWF-(1,26647)  1.76845655E-02                     1_GWF-(1,9691)
        119          3         19      0.41439800                    1_GWF-(1,26665)  9.68724834E-03                     1_GWF-(1,9692)
        120          3         20      0.40688535                    1_GWF-(1,26674)  8.16483229E-03                     1_GWF-(1,9691)
        121          3         21      0.19545423                    1_GWF-(1,26486) -7.10959002E-03                    1_GWF-(1,16201)
        122          3         22      0.36778760                    1_GWF-(1,26350)  6.18191607E-03                    1_GWF-(1,10961)
        123          3         23      0.38455093                    1_GWF-(1,26422)  9.47391676E-03                     1_GWF-(1,9691)
        124          3         24      0.52726901                    1_GWF-(1,26420)  9.27070937E-03                     1_GWF-(1,9692)
        125          3         25      0.48104055                    1_GWF-(1,26422)  1.09964990E-02                     1_GWF-(1,9691)
        126          3         26      0.51700794                    1_GWF-(1,26420)  6.65545782E-03                     1_GWF-(1,9692)
        127          3         27      0.42840404                    1_GWF-(1,26487) -5.12078747E-03                    1_GWF-(1,16201)
        128          3         28     -0.40870742                    1_GWF-(1,26487)  7.90741209E-03                     1_GWF-(1,9691)
        129          3         29     -0.55917523                    1_GWF-(1,26486)  7.40586733E-03                     1_GWF-(1,9692)
        130          3         30     -0.41035964                    1_GWF-(1,26544)  7.70128945E-03                     1_GWF-(1,9691)
        131          3         31     -0.38937583                    1_GWF-(1,26486)  4.16017656E-03                    1_GWF-(1,11145)
        132          3         32     -0.33455437                    1_GWF-(1,26588)  3.81887513E-03                    1_GWF-(1,11148)
        133          3         33     -0.37320360                    1_GWF-(1,26543)  5.22021938E-03                     1_GWF-(1,9691)
        134          3         34     -0.45545533                    1_GWF-(1,26588)  5.65862558E-03                     1_GWF-(1,9692)
        135          3         35      0.35249281                    1_GWF-(1,26588)  5.99717661E-03                     1_GWF-(1,9691)
        136          3         36      0.26062788                    1_GWF-(1,26665)  4.82488068E-03                    1_GWF-(1,11147)
        137          3         37      0.35610767                    1_GWF-(1,26649)  4.95026470E-03                    1_GWF-(1,11048)
        138          3         38      0.44799564                    1_GWF-(1,26622)  3.95555856E-03                    1_GWF-(1,16201)
        139          3         39     -0.38188442                    1_GWF-(1,26622)  3.91982834E-03                    1_GWF-(1,11133)
        140          3         40     -0.30362873                    1_GWF-(1,26623) -4.08912067E-03                    1_GWF-(1,11149)
        141          3         41     -0.24116165                    1_GWF-(1,26622)  4.12186447E-03                    1_GWF-(1,11047)
        142          3         42     -0.33842276                    1_GWF-(1,26665)  3.48372380E-03                    1_GWF-(1,11152)
        143          3         43     -0.31207071                    1_GWF-(1,26666)  3.75414726E-03                    1_GWF-(1,11135)
        144          3         44     -0.29318705                    1_GWF-(1,26665)  3.57048114E-03                    1_GWF-(1,11058)
        145          3         45      0.30115068                    1_GWF-(1,26665)  4.39722530E-03                    1_GWF-(1,11053)
        146          3         46      0.24269303                    1_GWF-(1,26666) -3.02960903E-03                    1_GWF-(1,11059)
        147          3         47     -0.17413853                    1_GWF-(1,26543) -3.21537775E-03                    1_GWF-(1,11054)
        148          3         48     -0.17057276                    1_GWF-(1,26542)  2.93335580E-03                    1_GWF-(1,10966)
        149          3         49     -0.20218071                    1_GWF-(1,26623)  3.16084652E-03                    1_GWF-(1,11156)
        150          3         50     -0.17145979                    1_GWF-(1,26586)  2.35255733E-03                    1_GWF-(1,11155)
        151          4          1     -0.29115360                    1_GWF-(1,11428) -7.82686323E-03                    1_GWF-(1,10745)
        152          4          2     -0.24366567                    1_GWF-(1,11421) -5.75136445E-03                    1_GWF-(1,15063)
        153          4          3     -0.19327990                    1_GWF-(1,11401)  3.32912971E-03                    1_GWF-(1,15063)
        154          4          4     -0.17371906                    1_GWF-(1,11404)  2.54125590E-03                    1_GWF-(1,15062)
        155          4          5     -0.14454032                    1_GWF-(1,11316)  2.59550100E-03                    1_GWF-(1,15067)
        156          4          6 -9.44683763E-02                    1_GWF-(1,11318)  2.77311459E-03                    1_GWF-(1,15063)
        157          4          7      0.11549035                    1_GWF-(1,11403)  2.72551676E-03                    1_GWF-(1,10651)
        158          4          8     -0.11210002                    1_GWF-(1,26665) -2.56487000E-03                    1_GWF-(1,15062)
        159          4          9      0.11702312                    1_GWF-(1,26665) -2.63052298E-03                    1_GWF-(1,15067)
        160          4         10     -0.14014482                    1_GWF-(1,26665) -2.12534279E-03                    1_GWF-(1,15058)
        161          4         11      0.11950757                    1_GWF-(1,26665) -1.99966024E-03                    1_GWF-(1,15062)
        162          4         12 -7.00703121E-02                    1_GWF-(1,11369) -2.25454295E-03                    1_GWF-(1,15067)
        163          4         13 -8.20945350E-02                    1_GWF-(1,26622) -1.71565779E-03                    1_GWF-(1,15058)
        164          4         14  8.26919312E-02                    1_GWF-(1,26622)  8.60081766E-04                    1_GWF-(1,15093)
        165          4         15  6.24713419E-02                    1_GWF-(1,26649)  1.06056499E-03                    1_GWF-(1,15058)
        166          4         16  5.06249758E-02                    1_GWF-(1,26622) -1.23629305E-03                    1_GWF-(1,15058)
        167          4         17 -4.15398515E-02                    1_GWF-(1,26218) -1.19665333E-03                    1_GWF-(1,15079)
        168          4         18 -5.44655618E-02                    1_GWF-(1,26588)  1.28827517E-03                    1_GWF-(1,15069)
        169          4         19  6.36016726E-02                    1_GWF-(1,26588) -1.21528292E-03                    1_GWF-(1,15058)
        170          4         20 -7.83057728E-02                    1_GWF-(1,26588)  1.00869869E-03                    1_GWF-(1,10961)
        171          4         21 -5.85981758E-02                    1_GWF-(1,26543)  9.45009823E-04                    1_GWF-(1,15069)
        172          4         22 -3.80796520E-02                    1_GWF-(1,26588) -1.04014601E-03                    1_GWF-(1,10961)
        173          4         23 -4.42084492E-02                    1_GWF-(1,26486) -1.10870270E-03                    1_GWF-(1,15079)
        174          4         24  5.14596592E-02                    1_GWF-(1,26486) -1.05427429E-03                    1_GWF-(1,15078)
        175          4         25 -6.10430048E-02                    1_GWF-(1,26486)  7.56309745E-04                    1_GWF-(1,10959)
        176          4         26 -5.62516465E-02                    1_GWF-(1,26487) -1.16207620E-03                    1_GWF-(1,15079)
        177          4         27 -5.41231829E-02                    1_GWF-(1,26420) -1.43198515E-03                    1_GWF-(1,15078)
        178          4         28 -5.80338179E-02                    1_GWF-(1,26422)  1.32699085E-03                    1_GWF-(1,15078)
        179          4         29 -5.76541970E-02                    1_GWF-(1,26350)  1.04704435E-03                    1_GWF-(1,15083)
        180          4         30 -4.83156747E-02                    1_GWF-(1,26422)  8.63438899E-04                     1_GWF-(1,5697)
        181          4         31  5.63428831E-02                    1_GWF-(1,26422)  1.11552618E-03                    1_GWF-(1,15078)
        182          4         32  4.64310086E-02                    1_GWF-(1,26350)  1.09630713E-03                    1_GWF-(1,15083)
        183          4         33  3.78592237E-02                    1_GWF-(1,26421) -8.79581912E-04                    1_GWF-(1,15083)
        184          4         34  2.87376428E-02                    1_GWF-(1,26350) -8.03113717E-04                    1_GWF-(1,11145)
        185          4         35 -2.68184976E-02                    1_GWF-(1,11459) -7.11833853E-04                    1_GWF-(1,11148)
        186          4         36 -2.53992329E-02                    1_GWF-(1,11365)  1.12537044E-03                     1_GWF-(1,9691)
        187          4         37 -1.68421257E-02                    1_GWF-(1,11366)  1.17728238E-03                     1_GWF-(1,9692)
        188          4         38  2.99694885E-02                    1_GWF-(1,11454)  1.76005487E-03                     1_GWF-(1,9691)
        189          4         39 -1.75364473E-02                    1_GWF-(1,26217)  1.82641467E-03                     1_GWF-(1,9692)
        190          4         40 -1.91518073E-02                    1_GWF-(1,11380)  2.83432358E-03                     1_GWF-(1,9691)
        191          4         41 -1.36527313E-02                    1_GWF-(1,13517) -2.76633472E-03                     1_GWF-(1,9691)
        192          4         42  1.23763679E-02                    1_GWF-(1,11369)  3.63198968E-03                     1_GWF-(1,9691)
        193          4         43 -1.36115191E-02                    1_GWF-(1,11369) -3.41612986E-03                     1_GWF-(1,9691)
        194          4         44  1.21349628E-02                    1_GWF-(1,11453)  3.66456559E-03                     1_GWF-(1,9691)
        195          4         45  1.00502941E-02                    1_GWF-(1,26218) -3.32694409E-03                     1_GWF-(1,9691)
        196          4         46 -7.35445428E-03                    1_GWF-(1,14224)  3.49349538E-03                     1_GWF-(1,9691)
        197          4         47  7.60146521E-03                    1_GWF-(1,11701) -2.74843022E-03                     1_GWF-(1,9691)
        198          4         48  7.39789052E-03                    1_GWF-(1,11454)  2.93883923E-03                     1_GWF-(1,9691)
        199          4         49  7.51000605E-03                    1_GWF-(1,11381) -2.21079500E-03                     1_GWF-(1,9691)
        200          4         50 -9.49458308E-03                    1_GWF-(1,26217)  2.32906047E-03                     1_GWF-(1,9691)
        201          5          1 -5.03512315E-02                    1_GWF-(1,11378)  8.57886754E-04                     1_GWF-(1,9692)
        202          5          2 -3.32866784E-02                    1_GWF-(1,11369)  2.60250203E-03                     1_GWF-(1,9691)
        203          5          3 -1.95366384E-02                    1_GWF-(1,11454) -2.81817570E-03                     1_GWF-(1,9691)
        204          5          4  2.08069386E-02                    1_GWF-(1,11378)  2.61740379E-03                     1_GWF-(1,9691)
        205          5          5 -2.15006704E-02                    1_GWF-(1,11373) -2.42172227E-03                     1_GWF-(1,9691)
        206          5          6  1.82509589E-02                    1_GWF-(1,11373)  2.83664531E-03                     1_GWF-(1,9691)
        207          5          7  2.67161955E-02                    1_GWF-(1,11378) -2.23742338E-03                     1_GWF-(1,9691)
        208          5          8  1.95230071E-02                    1_GWF-(1,11368)  2.16071152E-03                     1_GWF-(1,9691)
        209          5          9 -1.57525326E-02                    1_GWF-(1,11368) -1.95185725E-03                     1_GWF-(1,9691)
        210          5         10 -1.69477697E-02                    1_GWF-(1,11451)  1.85622551E-03                     1_GWF-(1,9691)
        211          5         11 -2.23028159E-02                    1_GWF-(1,11378) -1.17548228E-03                     1_GWF-(1,9691)
        212          5         12 -1.87713477E-02                    1_GWF-(1,11368)  1.10915936E-03                     1_GWF-(1,9691)
        213          5         13 -1.61459469E-02                    1_GWF-(1,11451)  7.20503293E-04                     1_GWF-(1,9692)
        214          5         14  1.42951261E-02                    1_GWF-(1,11451)  6.88605695E-04                     1_GWF-(1,9691)
        215          5         15  1.47582593E-02                    1_GWF-(1,11452)  4.02019819E-04                     1_GWF-(1,9692)
        216          5         16  1.20625943E-02                    1_GWF-(1,11368)  3.16839717E-04                     1_GWF-(1,9691)
        217          5         17 -9.30889795E-03                    1_GWF-(1,26487)  1.37881029E-04                    1_GWF-(1,10651)
        218          5         18 -1.18967803E-02                    1_GWF-(1,26486)  1.77908546E-04                     1_GWF-(1,9692)
        219          5         19 -1.02098296E-02                    1_GWF-(1,26588)  3.35514217E-04                     1_GWF-(1,9691)
        220          5         20 -8.22705209E-03                    1_GWF-(1,11415)  2.43616035E-04                     1_GWF-(1,9692)
        221          5         21 -8.27406354E-03                    1_GWF-(1,11454) -2.05339303E-04                    1_GWF-(1,10651)
        222          5         22 -8.95449548E-03                    1_GWF-(1,11452) -1.25874736E-04                    1_GWF-(1,11132)
        223          5         23 -8.06277296E-03                    1_GWF-(1,11415)  1.00254468E-04                    1_GWF-(1,11132)
        224          5         24  6.93311713E-03                    1_GWF-(1,26421)  1.43970081E-04                    1_GWF-(1,11352)
        225          5         25  7.74682112E-03                    1_GWF-(1,26350) -1.15967760E-04                    1_GWF-(1,14801)
        226          5         26  8.49945258E-03                    1_GWF-(1,26486)  1.80116302E-04                     1_GWF-(1,9691)
        227          5         27  6.97177319E-03                    1_GWF-(1,26544)  1.36706882E-04                     1_GWF-(1,9692)
        228          5         28  6.74798474E-03                    1_GWF-(1,26486)  1.04330774E-04                     1_GWF-(1,9691)
        229          5         29  6.08300396E-03                    1_GWF-(1,26622) -1.12301193E-04                    1_GWF-(1,10651)
        230          5         30  5.73231685E-03                    1_GWF-(1,26649)  1.22356905E-04                     1_GWF-(1,9692)
        231          5         31 -5.36093962E-03                    1_GWF-(1,26350)  1.86976959E-04                     1_GWF-(1,9691)
        232          5         32 -6.44743973E-03                    1_GWF-(1,26422)  1.29696175E-04                     1_GWF-(1,9692)
        233          5         33 -5.75593993E-03                    1_GWF-(1,26350)  1.34066394E-04                     1_GWF-(1,9691)
        234          5         34 -4.98099131E-03                    1_GWF-(1,26422)  9.33445268E-05                    1_GWF-(1,10966)
        235          5         35 -5.27995876E-03                    1_GWF-(1,26588)  1.12789792E-04                    1_GWF-(1,10651)
        236          5         36  5.78092477E-03                    1_GWF-(1,26588)  7.40714315E-05                    1_GWF-(1,11352)
        237          5         37 -7.27907004E-03                    1_GWF-(1,26588)  8.00582973E-05                    1_GWF-(1,11351)
        238          5         38 -5.44331911E-03                    1_GWF-(1,26589)  1.03139210E-04                     1_GWF-(1,9691)
        239          5         39 -5.71890403E-03                    1_GWF-(1,26588) -1.41657477E-04                    1_GWF-(1,10651)
        240          5         40 -4.99041705E-03                    1_GWF-(1,26665)  1.34491038E-04                    1_GWF-(1,10651)
        241          5         41  5.84277958E-03                    1_GWF-(1,26665)  1.23776990E-04                    1_GWF-(1,10652)
        242          5         42  6.12603355E-03                    1_GWF-(1,26666)  1.24003633E-04                    1_GWF-(1,10651)
        243          5         43  6.40172648E-03                    1_GWF-(1,26665)  1.03821750E-04                    1_GWF-(1,10651)
        244          5         44 -4.12555676E-03                    1_GWF-(1,26665)  9.75237457E-05                    1_GWF-(1,10652)
        245          5         45  2.93953322E-03                    1_GWF-(1,26665)  1.46313017E-04                    1_GWF-(1,10651)
        246          5         46  3.07538003E-03                    1_GWF-(1,11305)  1.06218934E-04                    1_GWF-(1,10652)
        247          5         47  2.59564710E-03                    1_GWF-(1,11409)  1.05692820E-04                    1_GWF-(1,10651)
        248          5         48  2.77234532E-03                    1_GWF-(1,11413) -1.24646030E-04                    1_GWF-(1,10651)
        249          5         49  2.15619686E-03                    1_GWF-(1,26217)  1.43694968E-04                    1_GWF-(1,10651)
        250          5         50 -2.90907955E-03                     1_GWF-(1,8324)  1.15339188E-04                    1_GWF-(1,10652)
        251          6          1 -5.50039214E-03                    1_GWF-(1,11374)  1.06048816E-04                    1_GWF-(1,10651)
        252          6          2 -2.30375307E-03                    1_GWF-(1,11436) -1.11796356E-04                    1_GWF-(1,10651)
        253          6          3 -2.44264423E-03                    1_GWF-(1,26218)  1.24563208E-04                    1_GWF-(1,10651)
        254          6          4 -2.69590298E-03                    1_GWF-(1,11374) -7.64212576E-05                    1_GWF-(1,10651)
        255          6          5 -2.39398187E-03                    1_GWF-(1,26218)  8.81076186E-05                    1_GWF-(1,10651)
        256          6          6 -2.02762879E-03                    1_GWF-(1,26217)  5.85110588E-05                    1_GWF-(1,10652)
        257          6          7  2.04654624E-03                    1_GWF-(1,11316)  5.44906811E-05                    1_GWF-(1,10651)
        258          6          8 -2.81670744E-03                    1_GWF-(1,26665)  4.12679084E-05                    1_GWF-(1,10651)
        259          6          9 -2.77667876E-03                    1_GWF-(1,26666)  5.18377045E-05                    1_GWF-(1,10652)
        260          6         10 -2.70494896E-03                    1_GWF-(1,26665)  4.57078747E-05                    1_GWF-(1,10651)
        261          6         11  1.85104362E-03                    1_GWF-(1,26665) -5.82419369E-05                    1_GWF-(1,10651)
        262          6         12  1.44376129E-03                    1_GWF-(1,26588) -3.36121242E-05                    1_GWF-(1,10652)
        263          6         13  1.57998594E-03                    1_GWF-(1,26589)  1.79938026E-05                    1_GWF-(1,15188)
        264          6         14  2.36161145E-03                    1_GWF-(1,26588) -3.37514761E-05                    1_GWF-(1,10651)
        265          6         15  1.99405479E-03                    1_GWF-(1,26543) -2.54498414E-05                    1_GWF-(1,10632)
        266          6         16  2.03259317E-03                    1_GWF-(1,26588)  2.26911169E-05                    1_GWF-(1,10966)
        267          6         17 -1.18227252E-03                    1_GWF-(1,26420) -2.33783787E-05                    1_GWF-(1,10966)
        268          6         18 -1.25710309E-03                    1_GWF-(1,26422) -2.99583737E-05                    1_GWF-(1,15080)
        269          6         19  1.50985083E-03                    1_GWF-(1,26422) -3.84253108E-05                    1_GWF-(1,10651)
        270          6         20  1.41190451E-03                    1_GWF-(1,26350) -2.96674986E-05                    1_GWF-(1,10652)
        271          6         21 -1.24746001E-03                    1_GWF-(1,26649) -3.49787202E-05                    1_GWF-(1,10651)
        272          6         22 -1.45911210E-03                    1_GWF-(1,26622)  1.45916354E-05                    1_GWF-(1,10864)
        273          6         23 -1.51298100E-03                    1_GWF-(1,26649)  2.59312036E-05                    1_GWF-(1,10651)
        274          6         24 -1.47563326E-03                    1_GWF-(1,26544) -4.01459967E-05                    1_GWF-(1,10651)
        275          6         25 -1.64708920E-03                    1_GWF-(1,26486) -3.15165932E-05                    1_GWF-(1,10652)
        276          6         26 -1.54361530E-03                    1_GWF-(1,26350) -1.98279187E-05                    1_GWF-(1,10653)
        277          6         27 -1.30580975E-03                    1_GWF-(1,26422) -1.54350819E-05                    1_GWF-(1,10654)
        278          6         28  9.51952043E-04                    1_GWF-(1,26486) -2.28427592E-05                    1_GWF-(1,10652)
        279          6         29  9.16175165E-04                    1_GWF-(1,26544) -2.75953591E-05                    1_GWF-(1,10651)
        280          6         30  1.12833498E-03                    1_GWF-(1,26486)  2.42490362E-05                    1_GWF-(1,10651)
        281          6         31  1.11403364E-03                    1_GWF-(1,26217) -4.46863401E-05                    1_GWF-(1,10651)
        282          6         32  1.02267681E-03                    1_GWF-(1,26486)  2.49051007E-05                    1_GWF-(1,10653)
        283          6         33  8.56441294E-04                    1_GWF-(1,26487)  2.21489610E-05                    1_GWF-(1,10652)
        284          6         34  7.68701078E-04                    1_GWF-(1,26486)  1.10344343E-05                    1_GWF-(1,10652)
        285          6         35  7.16023508E-04                    1_GWF-(1,26588)  1.76771692E-05                    1_GWF-(1,10653)
        286          6         36 -5.71975714E-04                    1_GWF-(1,11452)  2.36570325E-05                     1_GWF-(1,9691)
        287          6         37  4.34489965E-04                    1_GWF-(1,11369)  3.10790931E-05                    1_GWF-(1,10651)
        288          6         38  6.42100810E-04                    1_GWF-(1,11454)  3.58152578E-05                     1_GWF-(1,9691)
        289          6         39  6.30553971E-04                    1_GWF-(1,11368) -4.10743440E-05                     1_GWF-(1,9691)
        290          6         40  5.38196820E-04                    1_GWF-(1,11378)  6.04622901E-05                     1_GWF-(1,9691)
        291          6         41 -5.22608467E-04                    1_GWF-(1,11378) -6.65174434E-05                     1_GWF-(1,9691)
        292          6         42 -4.59443699E-04                    1_GWF-(1,11450)  8.25957340E-05                     1_GWF-(1,9691)
        293          6         43 -4.61171292E-04                    1_GWF-(1,11368) -8.86834739E-05                     1_GWF-(1,9691)
        294          6         44 -4.60414464E-04                    1_GWF-(1,11378)  1.01917042E-04                     1_GWF-(1,9691)
        295          6         45 -3.70953670E-04                    1_GWF-(1,11373) -1.00517473E-04                     1_GWF-(1,9691)
        296          6         46  4.69981860E-04                    1_GWF-(1,11372)  1.12399726E-04                     1_GWF-(1,9691)
        297          6         47 -4.11090944E-04                    1_GWF-(1,11369) -1.02132453E-04                     1_GWF-(1,9691)
        298          6         48  4.51117550E-04                    1_GWF-(1,11451)  9.90059731E-05                     1_GWF-(1,9691)
        299          6         49  6.98192531E-04                    1_GWF-(1,11369) -6.12308929E-05                     1_GWF-(1,9691)
        300          6         50  9.33918659E-04                    1_GWF-(1,11378)  8.13483360E-05                     1_GWF-(1,9691)
        301          7          1 -1.03504129E-03                    1_GWF-(1,11378) -6.11400553E-05                     1_GWF-(1,9691)
        302          7          2 -6.23948402E-04                    1_GWF-(1,11369)  8.21036749E-05                     1_GWF-(1,9691)
        303          7          3 -4.54107091E-04                    1_GWF-(1,11451) -8.04984427E-05                     1_GWF-(1,9691)
        304          7          4  3.08636528E-04                    1_GWF-(1,11369)  8.62700971E-05                     1_GWF-(1,9691)
        305          7          5 -3.83008688E-04                    1_GWF-(1,11373) -7.16408494E-05                     1_GWF-(1,9691)
        306          7          6  3.52699864E-04                    1_GWF-(1,11373)  6.85439830E-05                     1_GWF-(1,9691)
        307          7          7  2.94377582E-04                    1_GWF-(1,11378) -5.73823727E-05                     1_GWF-(1,9691)
        308          7          8  2.58055737E-04                    1_GWF-(1,11368)  5.35159744E-05                     1_GWF-(1,9691)
        309          7          9  2.48728107E-04                    1_GWF-(1,11373) -4.11767736E-05                     1_GWF-(1,9691)
        310          7         10  2.28776337E-04                    1_GWF-(1,11378)  3.50348930E-05                     1_GWF-(1,9691)
        311          7         11 -2.86967026E-04                    1_GWF-(1,11378)  2.05650855E-05                     1_GWF-(1,9692)
        312          7         12 -2.68211819E-04                    1_GWF-(1,11368)  1.81521263E-05                     1_GWF-(1,9691)
        313          7         13 -2.53701189E-04                    1_GWF-(1,26649)  8.07083241E-06                     1_GWF-(1,9692)
        314          7         14 -3.54784845E-04                    1_GWF-(1,26622)  4.48538943E-06                     1_GWF-(1,9692)
        315          7         15 -4.63901404E-04                    1_GWF-(1,26649)  1.27452940E-05                     1_GWF-(1,9691)
        316          7         16 -3.22744864E-04                    1_GWF-(1,26622)  1.08886587E-05                     1_GWF-(1,9692)
        317          7         17  2.21164458E-04                    1_GWF-(1,11454)  1.06223297E-05                     1_GWF-(1,9691)
        318          7         18  1.69900223E-04                    1_GWF-(1,26623)  8.62171824E-06                    1_GWF-(1,10653)
        319          7         19 -3.22410031E-04                    1_GWF-(1,26588) -6.60394940E-06                    1_GWF-(1,10651)
        320          7         20  4.01438515E-04                    1_GWF-(1,26588)  7.42265855E-06                     1_GWF-(1,9691)
        321          7         21 -3.60123267E-04                    1_GWF-(1,26588)  7.47336611E-06                     1_GWF-(1,9692)
        322          7         22  2.62843390E-04                    1_GWF-(1,26588) -8.68858194E-06                    1_GWF-(1,10653)
        323          7         23 -1.82579506E-04                    1_GWF-(1,26588) -6.08741782E-06                    1_GWF-(1,10658)
        324          7         24 -2.15107049E-04                    1_GWF-(1,26486) -6.12388811E-06                    1_GWF-(1,10653)
        325          7         25  3.35734973E-04                    1_GWF-(1,26486)  3.19039224E-06                    1_GWF-(1,11058)
        326          7         26  3.60625343E-04                    1_GWF-(1,26487)  3.50377297E-06                    1_GWF-(1,10959)
        327          7         27  2.88584913E-04                    1_GWF-(1,26420) -4.70664669E-06                    1_GWF-(1,10653)
        328          7         28  2.23458685E-04                    1_GWF-(1,26487) -3.87380394E-06                    1_GWF-(1,10654)
        329          7         29  1.71253069E-04                    1_GWF-(1,26420) -2.73341328E-06                    1_GWF-(1,10966)
        330          7         30 -1.25840554E-04                    1_GWF-(1,26420)  2.82761200E-06                     1_GWF-(1,9691)
        331          7         31 -1.48704303E-04                    1_GWF-(1,26421)  4.18554246E-06                    1_GWF-(1,10961)
        332          7         32 -1.66849096E-04                    1_GWF-(1,26350) -4.80047509E-06                    1_GWF-(1,10653)
        333          7         33 -1.68324937E-04                    1_GWF-(1,26422)  4.33696518E-06                    1_GWF-(1,10653)
        334          7         34  1.69563339E-04                    1_GWF-(1,26422)  3.99131504E-06                     1_GWF-(1,9691)
        335          7         35  1.73308124E-04                    1_GWF-(1,26350)  2.99927267E-06                    1_GWF-(1,10966)
        336          7         36  1.51425724E-04                    1_GWF-(1,26422)  2.61408751E-06                     1_GWF-(1,9691)
        337          7         37 -1.29779546E-04                    1_GWF-(1,26665) -2.19696280E-06                    1_GWF-(1,10961)
        338          7         38 -1.36555401E-04                    1_GWF-(1,26623) -1.89454404E-06                    1_GWF-(1,10481)
        339          7         39 -1.58523460E-04                    1_GWF-(1,26665) -3.08005505E-06                    1_GWF-(1,10653)
        340          7         40  1.34120613E-04                    1_GWF-(1,26665)  2.05015228E-06                    1_GWF-(1,10653)
        341          7         41 -1.37357599E-04                    1_GWF-(1,26350)  3.05515997E-06                     1_GWF-(1,9691)
        342          7         42 -1.40734653E-04                    1_GWF-(1,26422)  2.28712364E-06                     1_GWF-(1,9692)
        343          7         43 -1.26513466E-04                    1_GWF-(1,26350)  2.89591043E-06                    1_GWF-(1,10653)
        344          7         44 -1.09591184E-04                    1_GWF-(1,26422)  2.62164285E-06                    1_GWF-(1,10658)
        345          7         45  7.44195887E-05                    1_GWF-(1,26217)  4.03816941E-06                    1_GWF-(1,10653)
        346          7         46  8.31912494E-05                    1_GWF-(1,26218) -3.09937427E-06                    1_GWF-(1,10653)
        347          7         47  8.82921131E-05                    1_GWF-(1,26422)  3.72031484E-06                    1_GWF-(1,10653)
        348          7         48  8.80920422E-05                    1_GWF-(1,26218) -3.47623024E-06                    1_GWF-(1,10653)
        349          7         49  6.84163103E-05                    1_GWF-(1,26217)  4.61084903E-06                    1_GWF-(1,10653)
        350          7         50  9.98901735E-05                    1_GWF-(1,11374) -4.29057527E-06                    1_GWF-(1,10653)
        351          8          1 -9.67130891E-05                    1_GWF-(1,11374)  4.40655220E-06                    1_GWF-(1,10653)
        352          8          2 -6.53048807E-05                    1_GWF-(1,26217)  3.33496202E-06                    1_GWF-(1,10654)
        353          8          3 -7.87609521E-05                    1_GWF-(1,26218)  3.50826506E-06                    1_GWF-(1,10653)
        354          8          4 -7.72755137E-05                    1_GWF-(1,26422) -2.63409730E-06                    1_GWF-(1,10653)
        355          8          5 -6.28490222E-05                    1_GWF-(1,26350)  1.77165197E-06                    1_GWF-(1,10653)
        356          8          6 -8.16921212E-05                    1_GWF-(1,26487)  1.52405532E-06                    1_GWF-(1,10651)
        357          8          7 -7.49318164E-05                    1_GWF-(1,26486)  1.90414861E-06                    1_GWF-(1,10654)
        358          8          8  5.18964037E-05                    1_GWF-(1,26217)  3.21278370E-06                    1_GWF-(1,10653)
        359          8          9  6.89617780E-05                    1_GWF-(1,26218)  1.79867449E-06                    1_GWF-(1,10658)
        360          8         10  6.44302760E-05                    1_GWF-(1,26217) -1.16637816E-06                    1_GWF-(1,10654)
        361          8         11  5.71890390E-05                    1_GWF-(1,26350) -8.28938263E-07                    1_GWF-(1,10653)
        362          8         12  5.48034201E-05                    1_GWF-(1,26422) -9.42115158E-07                    1_GWF-(1,10650)
        363          8         13  5.82727165E-05                    1_GWF-(1,26665) -8.19001226E-07                    1_GWF-(1,10654)
        364          8         14  5.89334641E-05                    1_GWF-(1,26622) -1.26417138E-06                    1_GWF-(1,10653)
        365          8         15  6.29881871E-05                    1_GWF-(1,26649)  5.78512149E-07                    1_GWF-(1,10961)
        366          8         16  5.12740608E-05                    1_GWF-(1,26622)  8.73449206E-07                    1_GWF-(1,10966)
        367          8         17 -4.93916597E-05                    1_GWF-(1,26350) -9.87829762E-07                    1_GWF-(1,10653)
        368          8         18 -4.06844376E-05                    1_GWF-(1,26649)  9.38180350E-07                    1_GWF-(1,10653)
        369          8         19 -5.26330817E-05                    1_GWF-(1,26622) -8.46337275E-07                    1_GWF-(1,10653)
        370          8         20 -5.16920102E-05                    1_GWF-(1,26623)  9.66861992E-07                    1_GWF-(1,10961)
        371          8         21 -4.35538867E-05                    1_GWF-(1,26622) -6.63276788E-07                    1_GWF-(1,10652)
        372          8         22 -3.48916985E-05                    1_GWF-(1,26623) -9.33447339E-07                    1_GWF-(1,10653)
        373          8         23 -3.38852706E-05                    1_GWF-(1,26588) -1.11669421E-06                    1_GWF-(1,10654)
        374          8         24 -4.30665252E-05                    1_GWF-(1,26350) -1.24937191E-06                    1_GWF-(1,10653)
        375          8         25 -4.19889335E-05                    1_GWF-(1,26422)  6.94997675E-07                    1_GWF-(1,10653)
        376          8         26  4.12836285E-05                    1_GWF-(1,26588)  5.57588454E-07                    1_GWF-(1,11058)
        377          8         27  3.90197189E-05                    1_GWF-(1,26589) -7.32625855E-07                    1_GWF-(1,10653)
        378          8         28  4.40435732E-05                    1_GWF-(1,26588) -7.11798961E-07                    1_GWF-(1,10658)
        379          8         29  3.13172642E-05                    1_GWF-(1,26665)  7.29207696E-07                     1_GWF-(1,9691)
        380          8         30  3.86741587E-05                    1_GWF-(1,26420) -5.60984805E-07                    1_GWF-(1,10654)
        381          8         31  4.02733063E-05                    1_GWF-(1,26421) -4.37948359E-07                    1_GWF-(1,10652)
        382          8         32  3.33556380E-05                    1_GWF-(1,26420) -5.56509347E-07                    1_GWF-(1,10651)
        383          8         33  2.70188320E-05                    1_GWF-(1,26421)  9.16705854E-07                    1_GWF-(1,10651)
        384          8         34  1.68274849E-05                    1_GWF-(1,26420) -8.29373623E-07                    1_GWF-(1,10653)
        385          8         35 -1.79473398E-05                    1_GWF-(1,11369)  1.04589029E-06                    1_GWF-(1,10653)
        386          8         36 -1.61566271E-05                    1_GWF-(1,11378)  8.80673064E-07                     1_GWF-(1,9691)
        387          8         37 -1.54208527E-05                    1_GWF-(1,26217)  8.62910978E-07                    1_GWF-(1,10653)
        388          8         38  1.84034416E-05                    1_GWF-(1,11451)  1.24197923E-06                     1_GWF-(1,9691)
        389          8         39  1.45560058E-05                    1_GWF-(1,11368) -1.28373784E-06                     1_GWF-(1,9691)
        390          8         40 -1.31872655E-05                    1_GWF-(1,11368)  1.88568217E-06                     1_GWF-(1,9691)
        391          8         41 -1.60698242E-05                    1_GWF-(1,26623) -1.97189910E-06                     1_GWF-(1,9691)
        392          8         42 -2.07389345E-05                    1_GWF-(1,26622)  2.04022647E-06                     1_GWF-(1,9691)
        393          8         43 -2.38813683E-05                    1_GWF-(1,26623) -8.28023168E-07                     1_GWF-(1,9691)
        394          8         44 -2.47295849E-05                    1_GWF-(1,26622) -6.04221329E-07                     1_GWF-(1,9691)
        395          8         45 -1.77066691E-05                    1_GWF-(1,26649)  1.85975511E-06                     1_GWF-(1,9691)
        396          8         46 -1.37910809E-05                     1_GWF-(1,8097) -2.18369212E-06                     1_GWF-(1,9691)
        397          8         47 -1.44372212E-05                    1_GWF-(1,11454)  2.90468458E-06                     1_GWF-(1,9691)
        398          8         48 -1.63771949E-05                    1_GWF-(1,11373) -2.84298237E-06                     1_GWF-(1,9691)
        399          8         49  1.38046505E-05                    1_GWF-(1,11369)  2.53262621E-06                     1_GWF-(1,9691)
        400          8         50  2.21366884E-05                    1_GWF-(1,11378) -1.58849489E-06                     1_GWF-(1,9691)
        401          9          1  1.79835063E-05                    1_GWF-(1,26486)  1.88840023E-06                     1_GWF-(1,9691)
        402          9          2  1.82434394E-05                    1_GWF-(1,26487)  2.08257862E-07                     1_GWF-(1,5611)
        403          9          3  1.24585032E-05                    1_GWF-(1,11373) -1.67290224E-06                     1_GWF-(1,9691)
        404          9          4  9.72129891E-06                    1_GWF-(1,26487)  2.85245068E-06                     1_GWF-(1,9691)
        405          9          5 -1.30145056E-05                    1_GWF-(1,11378) -2.34562722E-06                     1_GWF-(1,9691)
        406          9          6 -7.95941083E-06                    1_GWF-(1,23373)  2.46240805E-06                     1_GWF-(1,9691)
        407          9          7  9.18374612E-06                    1_GWF-(1,11378) -2.30497595E-06                     1_GWF-(1,9691)
        408          9          8  1.18166259E-05                    1_GWF-(1,26649)  1.56122666E-06                     1_GWF-(1,9691)
        409          9          9  1.65323229E-05                    1_GWF-(1,26622)  2.27309038E-07                     1_GWF-(1,9691)
        410          9         10  1.54079604E-05                    1_GWF-(1,26623) -1.56439204E-06                     1_GWF-(1,9691)
        411          9         11  1.23473230E-05                    1_GWF-(1,26622)  2.06863605E-06                     1_GWF-(1,9691)
        412          9         12 -6.95469518E-06                    1_GWF-(1,26622) -1.70199321E-06                     1_GWF-(1,9691)
        413          9         13 -6.05848857E-06                    1_GWF-(1,11454)  1.57926997E-06                     1_GWF-(1,9691)
        414          9         14 -5.58869342E-06                    1_GWF-(1,11378) -1.08533214E-06                     1_GWF-(1,9691)
        415          9         15 -5.13128714E-06                    1_GWF-(1,26588)  9.13202615E-07                     1_GWF-(1,9691)
        416          9         16  8.19604989E-06                    1_GWF-(1,11369)  4.64932632E-07                     1_GWF-(1,9692)
        417          9         17 -9.02466906E-06                    1_GWF-(1,26666)  2.05320552E-07                    1_GWF-(1,10652)
        418          9         18 -1.12281161E-05                    1_GWF-(1,26665)  3.33389636E-07                     1_GWF-(1,9691)
        419          9         19  1.16342117E-05                    1_GWF-(1,26665) -4.97431321E-07                     1_GWF-(1,9691)
        420          9         20  7.58174073E-06                    1_GWF-(1,26588)  6.70717296E-07                     1_GWF-(1,9691)
        421          9         21 -7.40394446E-06                    1_GWF-(1,26420)  4.43976814E-07                     1_GWF-(1,9692)
        422          9         22  6.12121706E-06                    1_GWF-(1,26588)  3.09613859E-07                     1_GWF-(1,9691)
        423          9         23 -7.31429263E-06                    1_GWF-(1,26588) -1.82087761E-07                    1_GWF-(1,10658)
        424          9         24 -7.86152990E-06                    1_GWF-(1,26543)  1.28879928E-07                     1_GWF-(1,9692)
        425          9         25 -7.51254476E-06                    1_GWF-(1,26665)  3.05098246E-07                     1_GWF-(1,9691)
        426          9         26 -5.53561758E-06                    1_GWF-(1,26543)  2.52535821E-07                     1_GWF-(1,9692)
        427          9         27 -4.60930317E-06                    1_GWF-(1,26622)  2.96101351E-07                     1_GWF-(1,9691)
        428          9         28  3.51658074E-06                    1_GWF-(1,26218)  2.24876093E-07                    1_GWF-(1,10653)
        429          9         29  3.79140527E-06                    1_GWF-(1,25467) -2.47830072E-07                    1_GWF-(1,10653)
        430          9         30  4.55364506E-06                    1_GWF-(1,26622)  1.47755677E-07                    1_GWF-(1,10653)
        431          9         31  6.35742248E-06                    1_GWF-(1,26649)  1.22934816E-07                     1_GWF-(1,9691)
        432          9         32  7.50325057E-06                    1_GWF-(1,26622)  8.63823670E-08                    1_GWF-(1,11058)
        433          9         33  8.17828964E-06                    1_GWF-(1,26649) -1.07849245E-07                    1_GWF-(1,10966)
        434          9         34  5.40059572E-06                    1_GWF-(1,26622)  1.21309473E-07                    1_GWF-(1,10654)
        435          9         35  4.10596364E-06                    1_GWF-(1,26218)  9.29261877E-08                    1_GWF-(1,10653)
        436          9         36 -4.65556867E-06                    1_GWF-(1,26623)  1.01917568E-07                    1_GWF-(1,11197)
        437          9         37 -4.15219168E-06                    1_GWF-(1,26586) -7.55322963E-08                    1_GWF-(1,10961)
        438          9         38 -3.88178872E-06                    1_GWF-(1,26588)  9.01502030E-08                    1_GWF-(1,10653)
        439          9         39 -4.55688987E-06                    1_GWF-(1,26420) -1.32073330E-07                    1_GWF-(1,10653)
        440          9         40 -4.59503921E-06                    1_GWF-(1,26422) -5.88042937E-08                    1_GWF-(1,15105)
        441          9         41 -5.01973540E-06                    1_GWF-(1,26486)  6.18022284E-08                    1_GWF-(1,10651)
        442          9         42  5.39392887E-06                    1_GWF-(1,26486)  9.44096429E-08                    1_GWF-(1,10654)
        443          9         43 -5.31228552E-06                    1_GWF-(1,26486)  1.44369731E-07                    1_GWF-(1,10653)
        444          9         44  4.49272304E-06                    1_GWF-(1,26486)  9.74863512E-08                    1_GWF-(1,10658)
        445          9         45 -4.15764288E-06                    1_GWF-(1,26422)  9.01416007E-08                    1_GWF-(1,10653)
        446          9         46  4.30029368E-06                    1_GWF-(1,26422)  7.02242829E-08                     1_GWF-(1,9691)
        447          9         47  4.53666422E-06                    1_GWF-(1,26350)  4.39681965E-08                    1_GWF-(1,11112)
        448          9         48  4.24427730E-06                    1_GWF-(1,26422)  7.20223949E-08                    1_GWF-(1,10653)
        449          9         49  3.53882423E-06                    1_GWF-(1,26350)  8.66191662E-08                    1_GWF-(1,10654)
        450          9         50  2.80409220E-06                    1_GWF-(1,26422)  1.37490216E-07                    1_GWF-(1,10653)
        451         10          1 -3.52793448E-06                    1_GWF-(1,26422) -1.60878340E-07                    1_GWF-(1,10653)
        452         10          2 -4.08405319E-06                    1_GWF-(1,26350)  1.29506350E-07                    1_GWF-(1,10653)
        453         10          3 -4.04566604E-06                    1_GWF-(1,26422) -6.30177035E-08                    1_GWF-(1,10653)
        454         10          4 -3.56583042E-06                    1_GWF-(1,26350) -3.88376450E-08                    1_GWF-(1,11202)
        455         10          5 -2.71953441E-06                    1_GWF-(1,26422)  5.14641852E-08                    1_GWF-(1,10653)
        456         10          6 -2.80346161E-06                    1_GWF-(1,26588)  7.36687928E-08                    1_GWF-(1,10654)
        457         10          7  2.61367552E-06                    1_GWF-(1,26420)  8.43231107E-08                    1_GWF-(1,10653)
        458         10          8  2.18821413E-06                    1_GWF-(1,26487)  3.85506886E-08                    1_GWF-(1,10629)
        459         10          9  2.42769695E-06                    1_GWF-(1,26486)  4.83155850E-08                     1_GWF-(1,9691)
        460         10         10 -2.52491731E-06                    1_GWF-(1,26486)  5.17940319E-08                    1_GWF-(1,10653)
        461         10         11  2.98651266E-06                    1_GWF-(1,26486) -6.49747671E-08                    1_GWF-(1,10653)
        462         10         12  2.06517432E-06                    1_GWF-(1,26544) -4.00558139E-08                    1_GWF-(1,11196)
        463         10         13  2.17854035E-06                    1_GWF-(1,26543)  2.75536043E-08                    1_GWF-(1,11109)
        464         10         14  2.35997236E-06                    1_GWF-(1,26588) -6.37804145E-08                    1_GWF-(1,10653)
        465         10         15 -2.29558602E-06                    1_GWF-(1,26422) -4.08499029E-08                    1_GWF-(1,10654)
        466         10         16 -1.87521454E-06                    1_GWF-(1,26420)  3.01014605E-08                    1_GWF-(1,11109)
        467         10         17 -1.42300904E-06                    1_GWF-(1,26623) -2.17737030E-08                    1_GWF-(1,10966)
        468         10         18 -1.97819960E-06                    1_GWF-(1,26622) -2.76076577E-08                    1_GWF-(1,10658)
        469         10         19 -1.97092278E-06                    1_GWF-(1,26649)  3.18582258E-08                     1_GWF-(1,9691)
        470         10         20 -2.25691089E-06                    1_GWF-(1,26622)  2.43826428E-08                    1_GWF-(1,10653)
        471         10         21 -1.97075696E-06                    1_GWF-(1,26649)  1.98850576E-08                    1_GWF-(1,11112)
        472         10         22 -1.52609203E-06                    1_GWF-(1,26622) -1.96123250E-08                    1_GWF-(1,10653)
        473         10         23 -1.77753016E-06                    1_GWF-(1,26665)  2.56616470E-08                    1_GWF-(1,10653)
        474         10         24  1.55067164E-06                    1_GWF-(1,26665) -2.58950586E-08                    1_GWF-(1,10651)
        475         10         25  1.14385203E-06                    1_GWF-(1,26666) -2.04537036E-08                    1_GWF-(1,10652)
        476         10         26  1.07723675E-06                    1_GWF-(1,26665) -2.31210507E-08                    1_GWF-(1,11197)
        477         10         27 -9.58175321E-07                    1_GWF-(1,26218) -2.06857625E-08                    1_GWF-(1,10653)
        478         11          1  7.26992976E-07                    1_GWF-(1,26218)  1.71459239E-08                    1_GWF-(1,15187)
 --------------------------------------------------------------------------------------------------------------------------------------



 MEMORY MANAGER TOTAL STORAGE BY DATA TYPE, IN MEGABYTES
 -------------------------------
                    ALLOCATED   
 DATA TYPE           MEMORY     
 -------------------------------
 Character        4.66090000E-02
 Logical          4.40000000E-05
 Integer          5.2037920     
 Real             11.901376     
 -------------------------------
 Total            17.151821     
 -------------------------------


 
 Run end date and time (yyyy/mm/dd hh:mm:ss): 2022/04/25 11:39:46
 Elapsed run time:  0.570 Seconds
 Normal termination of simulation.
