                                   MODFLOW 6
                U.S. GEOLOGICAL SURVEY MODULAR HYDROLOGIC MODEL
                            VERSION 6.2.2 07/30/2021

   MODFLOW 6 compiled Jul 31 2021 14:22:53 with IFORT compiler (ver. 19.10.3)

This software has been approved for release by the U.S. Geological 
Survey (USGS). Although the software has been subjected to rigorous 
review, the USGS reserves the right to update the software as needed 
pursuant to further analysis and review. No warranty, expressed or 
implied, is made by the USGS or the U.S. Government as to the 
functionality of the software and related material nor shall the 
fact of release constitute any such warranty. Furthermore, the 
software is released on condition that neither the USGS nor the U.S. 
Government shall be held liable for any damages resulting from its 
authorized or unauthorized use. Also refer to the USGS Water 
Resources Software User Rights Notice for complete use, copyright, 
and distribution information.


System command used to initiate simulation:
mf6

MODFLOW was compiled using uniform precision.

Real Variables
  KIND: 8
  TINY (smallest non-zero value):    2.225074-308
  HUGE (largest value):    1.797693+308
  PRECISION: 15
  BIT SIZE: 64

Integer Variables
  KIND: 4
  HUGE (largest value): 2147483647
  BIT SIZE: 32

Long Integer Variables
  KIND: 8
  HUGE (largest value): 9223372036854775807
  BIT SIZE: 64

Logical Variables
  KIND: 4
  BIT SIZE: 32
 

 OPENED mfsim.nam
 FILE TYPE:NAM   UNIT 1001   STATUS:OLD                 
 FORMAT:FORMATTED              ACCESS:SEQUENTIAL          
 ACTION:READ                

 # File generated by Flopy version 3.3.5 on 04/28/2022 at 15:59:01.

 READING SIMULATION OPTIONS
 END OF SIMULATION OPTIONS

 READING SIMULATION TIMING

 OPENED mfsim.tdis
 FILE TYPE:TDIS   UNIT 1002   STATUS:OLD                 
 FORMAT:FORMATTED              ACCESS:SEQUENTIAL          
 ACTION:READ                


 TDIS -- TEMPORAL DISCRETIZATION PACKAGE,
 VERSION 1 : 11/13/2014 - INPUT READ FROM UNIT 1002
 # File generated by Flopy version 3.3.5 on 04/28/2022 at 15:59:01.
 PROCESSING TDIS OPTIONS
    SIMULATION TIME UNIT IS SECONDS
 END OF TDIS OPTIONS
 PROCESSING TDIS DIMENSIONS
    1 STRESS PERIOD(S) IN SIMULATION
 END OF TDIS DIMENSIONS
 PROCESSING TDIS PERIODDATA


 STRESS PERIOD     LENGTH       TIME STEPS     MULTIPLIER FOR DELT
 ----------------------------------------------------------------------------
        1         5.000000          1                    1.000
 END OF TDIS PERIODDATA
 END OF SIMULATION TIMING

 READING SIMULATION MODELS
    GWF6 model ML will be created as model 1
 END OF SIMULATION MODELS

 READING SIMULATION EXCHANGES
 END OF SIMULATION EXCHANGES

 READING SOLUTIONGROUP

 Creating solution: SLN_1           

 OPENED mfsim.ims
 FILE TYPE:IMS   UNIT 1015   STATUS:OLD                 
 FORMAT:FORMATTED              ACCESS:SEQUENTIAL          
 ACTION:READ                

 END OF SIMULATION SOLUTIONGROUP

 IMS -- ITERATIVE MODEL SOLUTION PACKAGE, VERSION 6, 4/28/2017
         INPUT READ FROM UNIT 1015
 # File generated by Flopy version 3.3.5 on 04/28/2022 at 15:59:01.

 PROCESSING IMS OPTIONS
 END OF IMS OPTIONS

 PROCESSING IMS NONLINEAR
 END OF IMS NONLINEAR DATA
 ***UNDER-RELAXATION WILL NOT BE USED***
 
 ***IMS LINEAR SOLVER WILL BE USED***

 IMSLINEAR -- UNSTRUCTURED LINEAR SOLUTION PACKAGE, VERSION 8, 04/28/2017

 PROCESSING LINEAR DATA
 END OF LINEAR DATA
 
 OUTER ITERATION CONVERGENCE CRITERION    (DVCLOSE) =    0.100000E-04
 MAXIMUM NUMBER OF OUTER ITERATIONS        (MXITER) = 100
 SOLVER PRINTOUT INDEX                     (IPRIMS) = 2
 NONLINEAR ITERATION METHOD            (NONLINMETH) = 0
 LINEAR SOLUTION METHOD                   (LINMETH) = 1

       SOLUTION BY THE        CONJUGATE-GRADIENT       METHOD
 ------------------------------------------------------------------
 MAXIMUM OF 100 CALLS OF SOLUTION ROUTINE
 MAXIMUM OF 50 INTERNAL ITERATIONS PER CALL TO SOLUTION ROUTINE
 LINEAR ACCELERATION METHOD            = CG        
 MATRIX PRECONDITIONING TYPE           = INCOMPLETE LU       
 MATRIX SCALING APPROACH               = NO SCALING          
 MATRIX REORDERING APPROACH            = ORIGINAL ORDERING        
 NUMBER OF ORTHOGONALIZATIONS          = 0
 HEAD CHANGE CRITERION FOR CLOSURE     =    0.10000E-05
 RESIDUAL CHANGE CRITERION FOR CLOSURE =    0.10000E-04
 RESIDUAL CONVERGENCE OPTION           = 1
 RESIDUAL CONVERGENCE NORM             = INFINITY NORM S 
 RELAXATION FACTOR                     =    0.00000E+00



 
    Solving:  Stress period:     1    Time step:     1
 
1
                            STRESS PERIOD NO. 1, LENGTH =   5.000000    
                            -----------------------------------------------
                            NUMBER OF TIME STEPS = 1
                            MULTIPLIER FOR DELT =     1.000
                            INITIAL TIME STEP SIZE =   5.000000    

 SLN_1 OUTER ITERATION SUMMARY
 ----------------------------------------------------------------------------------------------------------
                                OUTER      INNER                    STEP   MAXIMUM CHANGE MODEL-(CELLID) OR
 OUTER ITERATION STEP       ITERATION  ITERATION  MAXIMUM CHANGE SUCCESS             MODEL-PACKAGE-(NUMBER)
 ----------------------------------------------------------------------------------------------------------
 Model                              1         50       40.839688                            1_GWF-(1,26519)
 Model                              2         50      -35.930411                            1_GWF-(1,26519)
 Model                              3         50     -0.37933490                            1_GWF-(1,25161)
 Model                              4         50 -6.23830090E-02                            1_GWF-(1,21418)
 Model                              5         50 -6.96989944E-03                            1_GWF-(1,11378)
 Model                              6         50 -7.22407757E-04                            1_GWF-(1,21418)
 Model                              7         41 -2.95592713E-05                             1_GWF-(1,8197)
 Model                              8          1  7.21251062E-07       *                    1_GWF-(1,26622)
 ----------------------------------------------------------------------------------------------------------


 8 CALLS TO NUMERICAL SOLUTION IN TIME STEP 1 STRESS PERIOD 1
 342 TOTAL ITERATIONS

 SLN_1 INNER ITERATION SUMMARY
 --------------------------------------------------------------------------------------------------------------------------------------
      TOTAL      OUTER      INNER                                                            MAXIMUM                                   
  ITERATION  ITERATION  ITERATION  MAXIMUM CHANGE      MAXIMUM CHANGE MODEL-(CELLID)        RESIDUAL    MAXIMUM RESIDUAL MODEL-(CELLID)
 --------------------------------------------------------------------------------------------------------------------------------------
          1          1          1      -11.826521                    1_GWF-(1,12785)      0.66549493                    1_GWF-(1,11179)
          2          1          2       7.9523254                    1_GWF-(1,26564)     -0.36578491                    1_GWF-(1,11175)
          3          1          3       8.5895300                    1_GWF-(1,26565)     -0.32963984                    1_GWF-(1,11178)
          4          1          4       8.3328580                    1_GWF-(1,26564)      0.32137726                    1_GWF-(1,11180)
          5          1          5       8.5303740                    1_GWF-(1,26611)      0.29310272                    1_GWF-(1,11157)
          6          1          6       9.1710519                    1_GWF-(1,26649)      0.22654422                    1_GWF-(1,11158)
          7          1          7       9.2486840                    1_GWF-(1,26622)     -0.25579130                    1_GWF-(1,11208)
          8          1          8       7.3932599                    1_GWF-(1,26665)      0.14862146                    1_GWF-(1,10961)
          9          1          9      -5.6499286                    1_GWF-(1,26665)      0.15003929                    1_GWF-(1,11158)
         10          1         10      -5.6477637                    1_GWF-(1,26666)      0.15532120                    1_GWF-(1,11207)
         11          1         11      -5.3317645                    1_GWF-(1,26665)     -0.14537208                    1_GWF-(1,11207)
         12          1         12      -5.1215837                    1_GWF-(1,26622)      0.10909495                    1_GWF-(1,11059)
         13          1         13      -6.0436417                    1_GWF-(1,26649)  9.18873011E-02                    1_GWF-(1,11052)
         14          1         14      -4.9312558                    1_GWF-(1,26622)  8.45907902E-02                    1_GWF-(1,11050)
         15          1         15      -3.9511593                    1_GWF-(1,26623)  8.25479238E-02                    1_GWF-(1,11017)
         16          1         16      -3.0928513                    1_GWF-(1,26622)  8.16213093E-02                    1_GWF-(1,11058)
         17          1         17      -3.6245073                    1_GWF-(1,26588)      0.10958159                    1_GWF-(1,10873)
         18          1         18      -4.7172205                    1_GWF-(1,26543)     -0.10127666                    1_GWF-(1,11152)
         19          1         19      -6.1928861                    1_GWF-(1,26588)  8.49051949E-02                    1_GWF-(1,11194)
         20          1         20      -4.9953686                    1_GWF-(1,26543)  8.77926955E-02                    1_GWF-(1,11151)
         21          1         21      -3.5626122                    1_GWF-(1,26544) -8.23882027E-02                    1_GWF-(1,11152)
         22          1         22      -3.8699753                    1_GWF-(1,26486) -9.00015236E-02                    1_GWF-(1,11151)
         23          1         23      -3.7413103                    1_GWF-(1,26487)  7.67596163E-02                    1_GWF-(1,11151)
         24          1         24       3.5755271                    1_GWF-(1,26487)  6.65722133E-02                    1_GWF-(1,11108)
         25          1         25       4.6762034                    1_GWF-(1,26420) -6.72963931E-02                    1_GWF-(1,11151)
         26          1         26       4.8727342                    1_GWF-(1,26487) -7.92616332E-02                    1_GWF-(1,11108)
         27          1         27       4.0557300                    1_GWF-(1,26420)  6.53815071E-02                    1_GWF-(1,11108)
         28          1         28       2.9255628                    1_GWF-(1,26487) -5.84523761E-02                    1_GWF-(1,11149)
         29          1         29       2.2147085                    1_GWF-(1,26542) -5.65569299E-02                    1_GWF-(1,11150)
         30          1         30       1.8507170                    1_GWF-(1,26623) -5.83511243E-02                    1_GWF-(1,11063)
         31          1         31       1.9896683                    1_GWF-(1,26586)  5.00272975E-02                    1_GWF-(1,11158)
         32          1         32       1.7466765                    1_GWF-(1,26422) -4.78280085E-02                    1_GWF-(1,11053)
         33          1         33      -1.9686416                    1_GWF-(1,26422) -5.14005654E-02                    1_GWF-(1,11155)
         34          1         34      -2.0249752                    1_GWF-(1,26350) -4.53761280E-02                    1_GWF-(1,11154)
         35          1         35      -2.0736763                    1_GWF-(1,26422)  4.88620271E-02                    1_GWF-(1,11154)
         36          1         36      -1.8917112                    1_GWF-(1,26350) -4.94617920E-02                    1_GWF-(1,11153)
         37          1         37      -1.7110064                    1_GWF-(1,26422)  4.85959901E-02                    1_GWF-(1,11064)
         38          1         38      -1.5679809                    1_GWF-(1,26648)  5.62617817E-02                    1_GWF-(1,11063)
         39          1         39      -1.5052076                    1_GWF-(1,26649)  4.31564139E-02                    1_GWF-(1,11150)
         40          1         40      -1.4867381                    1_GWF-(1,26623)  3.30233849E-02                    1_GWF-(1,11110)
         41          1         41      -1.3030172                    1_GWF-(1,26649) -3.44476337E-02                    1_GWF-(1,11150)
         42          1         42      -1.1638695                    1_GWF-(1,26623)  3.86055653E-02                    1_GWF-(1,11150)
         43          1         43     -0.96632951                    1_GWF-(1,21484) -3.98461112E-02                    1_GWF-(1,11151)
         44          1         44     -0.96091950                    1_GWF-(1,21412) -4.17619371E-02                    1_GWF-(1,11108)
         45          1         45      -1.2332101                    1_GWF-(1,21259) -2.98680046E-02                    1_GWF-(1,11061)
         46          1         46      -1.1582978                    1_GWF-(1,20925)  3.31696413E-02                    1_GWF-(1,14801)
         47          1         47      -1.2198733                    1_GWF-(1,20919) -4.31568435E-02                    1_GWF-(1,14801)
         48          1         48     -0.91152775                    1_GWF-(1,20918)  5.48595124E-02                    1_GWF-(1,14801)
         49          1         49     -0.68611955                    1_GWF-(1,26217) -5.82649742E-02                    1_GWF-(1,14801)
         50          1         50     -0.62622539                    1_GWF-(1,26218)  7.80233623E-02                    1_GWF-(1,14801)
         51          2          1      -36.950924                    1_GWF-(1,26519)     -0.16443016                    1_GWF-(1,26519)
         52          2          2      -13.774203                    1_GWF-(1,26607) -6.30815955E-02                    1_GWF-(1,26516)
         53          2          3      -7.1275478                    1_GWF-(1,26637)  4.24478477E-02                    1_GWF-(1,26516)
         54          2          4      -7.0216503                    1_GWF-(1,26665)  4.90338297E-02                    1_GWF-(1,14801)
         55          2          5      -4.5639786                    1_GWF-(1,26649) -4.68237349E-02                    1_GWF-(1,14801)
         56          2          6      -3.4729198                    1_GWF-(1,26589)  6.34344629E-02                    1_GWF-(1,14801)
         57          2          7      -2.9608155                    1_GWF-(1,26543) -7.03766996E-02                    1_GWF-(1,14801)
         58          2          8      -2.5999979                    1_GWF-(1,26544)      0.10982238                    1_GWF-(1,14801)
         59          2          9      -1.8925117                    1_GWF-(1,26487) -9.36924782E-02                    1_GWF-(1,14801)
         60          2         10      -1.5664876                    1_GWF-(1,26421)  8.61911094E-02                    1_GWF-(1,14801)
         61          2         11      -1.4635659                    1_GWF-(1,26422)  1.54560196E-02                    1_GWF-(1,14800)
         62          2         12      -1.1639309                    1_GWF-(1,26217)  3.28011573E-02                    1_GWF-(1,14800)
         63          2         13     -0.89451815                    1_GWF-(1,26218)  6.35448235E-02                    1_GWF-(1,14801)
         64          2         14     -0.56583847                    1_GWF-(1,26649) -6.27513999E-02                    1_GWF-(1,14801)
         65          2         15     -0.61555714                    1_GWF-(1,26622)  5.84051856E-02                    1_GWF-(1,14801)
         66          2         16     -0.79928628                    1_GWF-(1,25775)  1.56873158E-02                    1_GWF-(1,14801)
         67          2         17     -0.87140159                    1_GWF-(1,25758)  6.24572958E-02                    1_GWF-(1,14800)
         68          2         18      0.87277026                    1_GWF-(1,26217)  8.74523597E-02                    1_GWF-(1,14801)
         69          2         19      0.64852037                    1_GWF-(1,26218)  6.47274699E-02                    1_GWF-(1,14800)
         70          2         20      0.46296948                    1_GWF-(1,26543)  5.02568472E-02                    1_GWF-(1,14801)
         71          2         21      0.68953326                    1_GWF-(1,26588)  1.00299403E-02                    1_GWF-(1,14801)
         72          2         22      0.73087066                    1_GWF-(1,26543)  4.52301760E-02                    1_GWF-(1,14800)
         73          2         23      0.44304195                    1_GWF-(1,26544)  7.98026924E-02                    1_GWF-(1,14801)
         74          2         24     -0.49110989                    1_GWF-(1,26422)  7.11297641E-02                    1_GWF-(1,14800)
         75          2         25     -0.68167062                    1_GWF-(1,26486)  6.08299714E-02                    1_GWF-(1,14801)
         76          2         26     -0.73696263                    1_GWF-(1,26487)  1.15901459E-02                    1_GWF-(1,14800)
         77          2         27     -0.49213478                    1_GWF-(1,26420)  3.77714694E-02                    1_GWF-(1,14800)
         78          2         28     -0.26293766                    1_GWF-(1,26543)  6.68637596E-02                    1_GWF-(1,14801)
         79          2         29      0.27901771                    1_GWF-(1,26487)  6.56399443E-02                    1_GWF-(1,14800)
         80          2         30      0.28246280                    1_GWF-(1,26420)  8.77770533E-02                    1_GWF-(1,14801)
         81          2         31      0.23632309                    1_GWF-(1,25268) -7.99412967E-02                    1_GWF-(1,14801)
         82          2         32      0.25887260                    1_GWF-(1,26218)  8.81477885E-02                    1_GWF-(1,14801)
         83          2         33      0.27455971                    1_GWF-(1,26217) -6.05486501E-02                    1_GWF-(1,14801)
         84          2         34     -0.20881699                    1_GWF-(1,26217)  4.82050991E-02                    1_GWF-(1,14801)
         85          2         35      0.18725953                    1_GWF-(1,26422)  3.04743706E-02                    1_GWF-(1,14800)
         86          2         36      0.18601359                    1_GWF-(1,26218)  2.56014679E-02                    1_GWF-(1,14801)
         87          2         37     -0.20474296                    1_GWF-(1,21290)  1.63506509E-02                    1_GWF-(1,14800)
         88          2         38     -0.20770892                    1_GWF-(1,21282)  1.36908944E-02                    1_GWF-(1,14801)
         89          2         39     -0.19378552                    1_GWF-(1,20937)  7.52619073E-03                    1_GWF-(1,14800)
         90          2         40     -0.19063073                    1_GWF-(1,20915)  5.02320018E-03                    1_GWF-(1,14801)
         91          2         41     -0.15365067                    1_GWF-(1,25494)  7.17538653E-03                    1_GWF-(1,14801)
         92          2         42      0.16002988                    1_GWF-(1,21364)  9.21107099E-03                    1_GWF-(1,14800)
         93          2         43     -0.19321766                    1_GWF-(1,26350)  1.25140501E-02                    1_GWF-(1,14801)
         94          2         44      0.20876750                    1_GWF-(1,21283)  1.20363926E-02                    1_GWF-(1,14800)
         95          2         45      0.19936106                    1_GWF-(1,21265)  1.46645143E-02                    1_GWF-(1,14801)
         96          2         46      0.17770924                    1_GWF-(1,20917)  1.12828819E-02                    1_GWF-(1,14800)
         97          2         47      0.13580194                    1_GWF-(1,20232)  1.03111884E-02                    1_GWF-(1,14801)
         98          2         48 -9.33339172E-02                    1_GWF-(1,26422)  6.77781060E-03                    1_GWF-(1,14800)
         99          2         49 -8.70057241E-02                    1_GWF-(1,26586)  6.48911092E-03                    1_GWF-(1,14801)
        100          2         50 -7.22116620E-02                    1_GWF-(1,20584)  4.95270310E-03                    1_GWF-(1,15939)
        101          3          1     -0.13012260                    1_GWF-(1,11442) -6.57278937E-03                    1_GWF-(1,11378)
        102          3          2     -0.13441656                    1_GWF-(1,11437)  5.60886424E-03                    1_GWF-(1,14800)
        103          3          3 -9.72876825E-02                    1_GWF-(1,26079)  7.23727776E-03                    1_GWF-(1,14801)
        104          3          4 -7.32057266E-02                    1_GWF-(1,25600)  5.81782972E-03                    1_GWF-(1,14800)
        105          3          5 -7.80382690E-02                    1_GWF-(1,25572)  7.38816107E-03                    1_GWF-(1,14801)
        106          3          6 -7.08286597E-02                    1_GWF-(1,25582)  6.68345365E-03                    1_GWF-(1,14800)
        107          3          7 -6.53606571E-02                    1_GWF-(1,25580)  6.59138039E-03                    1_GWF-(1,14801)
        108          3          8 -7.13128358E-02                    1_GWF-(1,26422)  4.96656394E-03                    1_GWF-(1,14800)
        109          3          9 -7.68046282E-02                    1_GWF-(1,26350)  5.79101893E-03                    1_GWF-(1,14801)
        110          3         10 -6.62802236E-02                    1_GWF-(1,26422)  4.06620185E-03                    1_GWF-(1,14800)
        111          3         11 -6.95186669E-02                    1_GWF-(1,24873)  3.35368765E-03                    1_GWF-(1,15939)
        112          3         12 -6.28070045E-02                    1_GWF-(1,26422) -2.91550768E-03                    1_GWF-(1,15939)
        113          3         13 -4.72077728E-02                    1_GWF-(1,24901)  1.74956650E-03                    1_GWF-(1,15939)
        114          3         14 -4.90146296E-02                    1_GWF-(1,25416)  1.58500299E-03                    1_GWF-(1,14801)
        115          3         15 -4.71397300E-02                    1_GWF-(1,22570) -2.46996958E-03                    1_GWF-(1,14801)
        116          3         16 -4.33439376E-02                    1_GWF-(1,22559)  3.57363936E-03                    1_GWF-(1,14801)
        117          3         17 -4.43912056E-02                    1_GWF-(1,22537)  4.19533420E-03                    1_GWF-(1,14800)
        118          3         18 -4.05997771E-02                    1_GWF-(1,22524)  6.23816703E-03                    1_GWF-(1,14801)
        119          3         19 -3.71542260E-02                    1_GWF-(1,22311)  6.86045275E-03                    1_GWF-(1,14800)
        120          3         20 -4.08466488E-02                    1_GWF-(1,20921)  9.45803491E-03                    1_GWF-(1,14801)
        121          3         21 -5.01070481E-02                    1_GWF-(1,21263) -9.26313299E-03                    1_GWF-(1,14801)
        122          3         22 -4.77476842E-02                    1_GWF-(1,20229)  1.21034596E-02                    1_GWF-(1,14801)
        123          3         23 -4.55079045E-02                    1_GWF-(1,20222) -1.26537471E-02                    1_GWF-(1,14801)
        124          3         24  5.17862477E-02                    1_GWF-(1,26588)  1.27628235E-02                    1_GWF-(1,14801)
        125          3         25  5.97155328E-02                    1_GWF-(1,26487)  4.69944120E-03                    1_GWF-(1,14800)
        126          3         26  5.99694750E-02                    1_GWF-(1,26420)  3.30215480E-03                    1_GWF-(1,14800)
        127          3         27  4.56629321E-02                    1_GWF-(1,26487)  9.13331625E-03                    1_GWF-(1,14801)
        128          3         28 -3.18382189E-02                    1_GWF-(1,26543) -1.11008183E-02                    1_GWF-(1,14801)
        129          3         29 -3.80352280E-02                    1_GWF-(1,26486)  9.63466233E-03                    1_GWF-(1,14801)
        130          3         30 -4.10163631E-02                    1_GWF-(1,26622)  3.66313648E-03                    1_GWF-(1,14800)
        131          3         31 -4.45423235E-02                    1_GWF-(1,26649)  2.18437406E-03                    1_GWF-(1,14800)
        132          3         32 -4.56400315E-02                    1_GWF-(1,26622)  7.05769437E-03                    1_GWF-(1,14801)
        133          3         33 -3.48265187E-02                    1_GWF-(1,26649) -8.45280679E-03                    1_GWF-(1,14801)
        134          3         34  3.14016272E-02                    1_GWF-(1,26649)  8.37695604E-03                    1_GWF-(1,14801)
        135          3         35 -3.50403197E-02                    1_GWF-(1,26665)  3.42547548E-03                    1_GWF-(1,14800)
        136          3         36  4.66602923E-02                    1_GWF-(1,26665) -8.76623984E-04                    1_GWF-(1,15942)
        137          3         37  4.18467323E-02                    1_GWF-(1,26666)  3.19582398E-03                    1_GWF-(1,14801)
        138          3         38  2.92848872E-02                    1_GWF-(1,26665) -4.50855514E-03                    1_GWF-(1,14801)
        139          3         39 -2.40951725E-02                    1_GWF-(1,26665)  3.84890334E-03                    1_GWF-(1,14801)
        140          3         40  2.22654905E-02                    1_GWF-(1,26487) -2.77144339E-03                    1_GWF-(1,14801)
        141          3         41  2.57552739E-02                    1_GWF-(1,26486) -8.79390275E-04                    1_GWF-(1,15939)
        142          3         42  2.70986645E-02                    1_GWF-(1,26487)  1.63517457E-03                    1_GWF-(1,14801)
        143          3         43  2.68081591E-02                    1_GWF-(1,26486) -2.75689465E-03                    1_GWF-(1,14801)
        144          3         44  2.47812139E-02                    1_GWF-(1,26588) -2.26599911E-03                    1_GWF-(1,14800)
        145          3         45  1.73021093E-02                    1_GWF-(1,26622) -2.09187542E-03                    1_GWF-(1,14801)
        146          3         46  1.60254142E-02                    1_GWF-(1,26649) -1.38888328E-03                    1_GWF-(1,14800)
        147          3         47 -1.30409639E-02                    1_GWF-(1,26141) -1.34924706E-03                    1_GWF-(1,14801)
        148          3         48 -1.18094810E-02                    1_GWF-(1,26543) -8.59896570E-04                    1_GWF-(1,15939)
        149          3         49 -1.52006999E-02                    1_GWF-(1,26649)  5.86554381E-04                    1_GWF-(1,15939)
        150          3         50 -1.19579162E-02                    1_GWF-(1,26623)  4.05450608E-04                    1_GWF-(1,15854)
        151          4          1 -1.73340857E-02                    1_GWF-(1,11936)  3.17594462E-04                    1_GWF-(1,15939)
        152          4          2 -8.52807220E-03                    1_GWF-(1,11935) -4.07666743E-04                    1_GWF-(1,15939)
        153          4          3 -7.64370232E-03                    1_GWF-(1,26217) -5.75647757E-04                    1_GWF-(1,14801)
        154          4          4 -8.38374275E-03                    1_GWF-(1,26218) -5.55876009E-04                    1_GWF-(1,14800)
        155          4          5 -7.25866132E-03                    1_GWF-(1,26217) -7.25499786E-04                    1_GWF-(1,14801)
        156          4          6 -7.38019177E-03                    1_GWF-(1,26218) -7.12233105E-04                    1_GWF-(1,14800)
        157          4          7 -7.42140185E-03                    1_GWF-(1,20584) -8.55170005E-04                    1_GWF-(1,14801)
        158          4          8 -6.17989136E-03                    1_GWF-(1,20577)  6.29473538E-04                    1_GWF-(1,14801)
        159          4          9  5.95348315E-03                    1_GWF-(1,26486) -2.87039247E-04                    1_GWF-(1,14801)
        160          4         10  6.28241007E-03                    1_GWF-(1,26487) -2.45036391E-04                    1_GWF-(1,14801)
        161          4         11  5.49141726E-03                    1_GWF-(1,26486) -5.26641591E-04                    1_GWF-(1,14800)
        162          4         12 -4.74225845E-03                    1_GWF-(1,21335) -7.42261602E-04                    1_GWF-(1,14801)
        163          4         13 -4.83660135E-03                    1_GWF-(1,26674)  7.32036012E-04                    1_GWF-(1,14801)
        164          4         14 -5.62638034E-03                    1_GWF-(1,26666) -5.56671343E-04                    1_GWF-(1,14801)
        165          4         15 -5.91240156E-03                    1_GWF-(1,26665)  9.20463250E-05                    1_GWF-(1,14801)
        166          4         16  6.11650368E-03                    1_GWF-(1,26665)  4.08916298E-04                    1_GWF-(1,14801)
        167          4         17 -3.91429267E-03                    1_GWF-(1,20211) -6.26211719E-04                    1_GWF-(1,14801)
        168          4         18 -3.37683171E-03                    1_GWF-(1,20698)  7.19910207E-04                    1_GWF-(1,14801)
        169          4         19  3.72505137E-03                    1_GWF-(1,26622) -5.17807111E-04                    1_GWF-(1,14801)
        170          4         20 -3.55964236E-03                    1_GWF-(1,26622)  2.64965195E-04                    1_GWF-(1,14801)
        171          4         21 -3.97511078E-03                    1_GWF-(1,26649)  2.60166861E-04                    1_GWF-(1,14801)
        172          4         22 -3.57203038E-03                    1_GWF-(1,26622) -5.33083538E-04                    1_GWF-(1,14801)
        173          4         23 -3.30396389E-03                    1_GWF-(1,26486)  7.45820638E-04                    1_GWF-(1,14801)
        174          4         24 -3.38765741E-03                    1_GWF-(1,26487) -5.33568603E-04                    1_GWF-(1,14801)
        175          4         25 -3.56911073E-03                    1_GWF-(1,26588)  2.85881834E-04                    1_GWF-(1,14801)
        176          4         26 -3.26130021E-03                    1_GWF-(1,26487)  1.95217762E-04                    1_GWF-(1,14801)
        177          4         27 -2.55411189E-03                    1_GWF-(1,26588)  4.13771455E-04                    1_GWF-(1,14800)
        178          4         28 -1.84893889E-03                     1_GWF-(1,8049)  6.09791069E-04                    1_GWF-(1,14801)
        179          4         29  1.43615030E-03                    1_GWF-(1,20216) -6.09187278E-04                    1_GWF-(1,14801)
        180          4         30  1.35153001E-03                    1_GWF-(1,26588)  6.51201970E-04                    1_GWF-(1,14801)
        181          4         31  1.41684862E-03                    1_GWF-(1,26422) -4.70139643E-04                    1_GWF-(1,14801)
        182          4         32  1.53693970E-03                    1_GWF-(1,26218)  4.14867488E-04                    1_GWF-(1,14801)
        183          4         33  9.33189756E-04                    1_GWF-(1,26422)  2.55316701E-04                    1_GWF-(1,14800)
        184          4         34 -8.74306073E-04                    1_GWF-(1,21135)  1.96769505E-04                    1_GWF-(1,14801)
        185          4         35 -9.53673693E-04                    1_GWF-(1,21135) -1.43795320E-04                    1_GWF-(1,14801)
        186          4         36  1.23150408E-03                     1_GWF-(1,7967)  8.76048922E-05                    1_GWF-(1,14801)
        187          4         37  1.15921889E-03                     1_GWF-(1,7970)  8.34118204E-05                    1_GWF-(1,15939)
        188          4         38  1.12671194E-03                     1_GWF-(1,8065) -7.83340404E-05                    1_GWF-(1,15939)
        189          4         39  9.81452171E-04                     1_GWF-(1,8068)  7.91943712E-05                    1_GWF-(1,15939)
        190          4         40 -1.09799545E-03                    1_GWF-(1,26422)  7.36456843E-05                    1_GWF-(1,14799)
        191          4         41 -1.06355487E-03                    1_GWF-(1,26350)  5.97105298E-05                    1_GWF-(1,14801)
        192          4         42 -1.02650327E-03                    1_GWF-(1,26422)  5.99063653E-05                    1_GWF-(1,14800)
        193          4         43 -1.02415678E-03                    1_GWF-(1,26350)  7.87204172E-05                    1_GWF-(1,14801)
        194          4         44 -9.32291971E-04                    1_GWF-(1,26422)  6.41579237E-05                    1_GWF-(1,14800)
        195          4         45 -7.09625695E-04                    1_GWF-(1,20935)  7.23222274E-05                    1_GWF-(1,14801)
        196          4         46 -6.64061467E-04                    1_GWF-(1,26422)  5.90454885E-05                    1_GWF-(1,14800)
        197          4         47 -5.40789781E-04                    1_GWF-(1,26350)  6.19290971E-05                    1_GWF-(1,14801)
        198          4         48  5.42290829E-04                    1_GWF-(1,26079)  4.50170130E-05                    1_GWF-(1,14800)
        199          4         49  6.17196762E-04                    1_GWF-(1,26082)  5.08922041E-05                    1_GWF-(1,14801)
        200          4         50  5.44343325E-04                    1_GWF-(1,11442)  3.63973806E-05                    1_GWF-(1,14800)
        201          5          1 -6.16722297E-03                    1_GWF-(1,11378)  2.66771157E-05                    1_GWF-(1,14801)
        202          5          2 -1.71016735E-03                    1_GWF-(1,11369)  2.32586658E-05                    1_GWF-(1,14800)
        203          5          3 -8.55176800E-04                    1_GWF-(1,11454)  3.24383540E-05                    1_GWF-(1,14801)
        204          5          4 -6.28629584E-04                    1_GWF-(1,11458)  3.45022001E-05                    1_GWF-(1,14800)
        205          5          5  5.32638317E-04                    1_GWF-(1,11453)  5.07488368E-05                    1_GWF-(1,14801)
        206          5          6  6.04111944E-04                    1_GWF-(1,11460)  4.65551083E-05                    1_GWF-(1,14800)
        207          5          7  5.45606790E-04                    1_GWF-(1,11959)  5.84987657E-05                    1_GWF-(1,14801)
        208          5          8  5.66554620E-04                    1_GWF-(1,11997)  4.67182671E-05                    1_GWF-(1,14800)
        209          5          9  6.42408105E-04                    1_GWF-(1,11977)  4.77391235E-05                    1_GWF-(1,14801)
        210          5         10  5.91499761E-04                    1_GWF-(1,11981)  3.04494041E-05                    1_GWF-(1,14799)
        211          5         11  5.80029273E-04                    1_GWF-(1,26649)  2.68819467E-05                    1_GWF-(1,14798)
        212          5         12 -6.35018152E-04                    1_GWF-(1,26649)  4.38069919E-05                    1_GWF-(1,14801)
        213          5         13 -4.99537571E-04                    1_GWF-(1,26486)  3.45662858E-05                    1_GWF-(1,14800)
        214          5         14  4.63902254E-04                    1_GWF-(1,26486)  2.96867413E-05                    1_GWF-(1,14801)
        215          5         15 -4.25445894E-04                    1_GWF-(1,26486)  2.47293751E-05                    1_GWF-(1,14799)
        216          5         16 -3.48721889E-04                    1_GWF-(1,26350)  2.22787190E-05                    1_GWF-(1,15939)
        217          5         17 -3.76148311E-04                    1_GWF-(1,26486)  2.89848341E-05                    1_GWF-(1,14799)
        218          5         18 -3.62877644E-04                    1_GWF-(1,12055)  2.00389058E-05                    1_GWF-(1,14798)
        219          5         19 -4.57230201E-04                    1_GWF-(1,26486)  2.37303824E-05                    1_GWF-(1,14799)
        220          5         20 -5.02259410E-04                    1_GWF-(1,26487)  1.85602369E-05                    1_GWF-(1,14800)
        221          5         21  4.52581347E-04                    1_GWF-(1,26487)  1.92478206E-05                    1_GWF-(1,14798)
        222          5         22 -3.18359127E-04                    1_GWF-(1,26487)  3.37141545E-05                    1_GWF-(1,14799)
        223          5         23 -2.44669910E-04                    1_GWF-(1,21143)  2.38916707E-05                    1_GWF-(1,14798)
        224          5         24  3.16227883E-04                     1_GWF-(1,8212)  2.84779179E-05                    1_GWF-(1,14801)
        225          5         25  3.37813935E-04                     1_GWF-(1,8047) -4.22511371E-05                    1_GWF-(1,14801)
        226          5         26  2.93369109E-04                    1_GWF-(1,21267)  5.26808295E-05                    1_GWF-(1,14801)
        227          5         27  4.35705101E-04                    1_GWF-(1,20572)  5.24263377E-05                    1_GWF-(1,14800)
        228          5         28  3.35143304E-04                    1_GWF-(1,20572)  6.15543620E-05                    1_GWF-(1,14801)
        229          5         29  3.37557027E-04                    1_GWF-(1,26588) -4.61501321E-05                    1_GWF-(1,14801)
        230          5         30 -3.97901543E-04                    1_GWF-(1,26588) -1.54228940E-05                    1_GWF-(1,14799)
        231          5         31 -2.78961023E-04                    1_GWF-(1,26543)  2.81105967E-05                    1_GWF-(1,14801)
        232          5         32 -2.15771197E-04                    1_GWF-(1,26588) -4.73914659E-05                    1_GWF-(1,14801)
        233          5         33 -1.84324595E-04                     1_GWF-(1,8219)  6.49313244E-05                    1_GWF-(1,14801)
        234          5         34 -1.21490922E-04                    1_GWF-(1,26350) -8.03274096E-05                    1_GWF-(1,14801)
        235          5         35 -1.12313107E-04                    1_GWF-(1,26422)  8.87337360E-05                    1_GWF-(1,14801)
        236          5         36 -9.47964949E-05                    1_GWF-(1,23626) -8.07858189E-05                    1_GWF-(1,14801)
        237          5         37  1.03684183E-04                     1_GWF-(1,8187)  6.76637101E-05                    1_GWF-(1,14801)
        238          5         38  1.23122220E-04                     1_GWF-(1,8187) -5.34800191E-05                    1_GWF-(1,14801)
        239          5         39  1.08886862E-04                     1_GWF-(1,8014)  3.91895968E-05                    1_GWF-(1,14801)
        240          5         40 -1.50207104E-04                    1_GWF-(1,26665) -2.18641180E-05                    1_GWF-(1,14801)
        241          5         41 -1.35564848E-04                    1_GWF-(1,26666) -9.47171506E-06                    1_GWF-(1,14799)
        242          5         42 -1.64061447E-04                    1_GWF-(1,26665)  1.49418324E-05                    1_GWF-(1,14801)
        243          5         43 -1.41781536E-04                    1_GWF-(1,26666) -2.42371329E-05                    1_GWF-(1,14801)
        244          5         44 -1.18492951E-04                    1_GWF-(1,26665)  2.17375028E-05                    1_GWF-(1,14801)
        245          5         45  8.46004809E-05                    1_GWF-(1,26665) -2.10973030E-05                    1_GWF-(1,14801)
        246          5         46  7.24826034E-05                    1_GWF-(1,26663) -1.31452960E-05                    1_GWF-(1,14800)
        247          5         47 -5.56050953E-05                    1_GWF-(1,20552) -1.15620160E-05                    1_GWF-(1,14801)
        248          5         48 -5.72293832E-05                    1_GWF-(1,20592) -1.20715067E-05                    1_GWF-(1,14799)
        249          5         49 -7.99142464E-05                    1_GWF-(1,20572)  1.00089845E-05                    1_GWF-(1,14799)
        250          5         50 -7.79239077E-05                    1_GWF-(1,20233) -1.29950287E-05                    1_GWF-(1,14799)
        251          6          1 -4.19311503E-05                    1_GWF-(1,26217)  1.27821527E-05                    1_GWF-(1,14799)
        252          6          2 -5.00048231E-05                    1_GWF-(1,21323) -1.56208591E-05                    1_GWF-(1,14799)
        253          6          3 -6.56983657E-05                    1_GWF-(1,20979)  1.41019133E-05                    1_GWF-(1,14799)
        254          6          4 -6.65152851E-05                    1_GWF-(1,21359) -1.44321654E-05                    1_GWF-(1,14799)
        255          6          5 -6.17325162E-05                    1_GWF-(1,21349)  1.01780403E-05                    1_GWF-(1,14799)
        256          6          6 -6.67581786E-05                    1_GWF-(1,20234) -1.03446790E-05                    1_GWF-(1,14799)
        257          6          7  7.28217763E-05                    1_GWF-(1,26665) -1.07226062E-05                    1_GWF-(1,14801)
        258          6          8 -6.94691444E-05                    1_GWF-(1,26665)  6.96207794E-06                    1_GWF-(1,14801)
        259          6          9  7.31983169E-05                    1_GWF-(1,26665) -5.20594179E-06                    1_GWF-(1,14799)
        260          6         10 -5.84832223E-05                    1_GWF-(1,26665)  7.94465485E-06                    1_GWF-(1,14799)
        261          6         11  4.35170031E-05                    1_GWF-(1,26665)  7.63524476E-06                    1_GWF-(1,14801)
        262          6         12 -5.44476686E-05                    1_GWF-(1,26649) -7.67881626E-06                    1_GWF-(1,14801)
        263          6         13 -7.27256963E-05                    1_GWF-(1,26622)  4.16964246E-06                    1_GWF-(1,14801)
        264          6         14 -5.60909882E-05                    1_GWF-(1,26649) -4.55407761E-06                    1_GWF-(1,14799)
        265          6         15 -4.95656461E-05                    1_GWF-(1,26622)  7.02052932E-06                    1_GWF-(1,14799)
        266          6         16 -3.88792319E-05                    1_GWF-(1,25339)  1.01884182E-05                    1_GWF-(1,14801)
        267          6         17 -3.68630420E-05                    1_GWF-(1,25339) -1.16515263E-05                    1_GWF-(1,14801)
        268          6         18 -3.52148468E-05                    1_GWF-(1,25362)  1.12416513E-05                    1_GWF-(1,14801)
        269          6         19 -2.99618132E-05                    1_GWF-(1,25363) -7.89236676E-06                    1_GWF-(1,14801)
        270          6         20 -3.53358181E-05                    1_GWF-(1,26487)  2.87992857E-06                    1_GWF-(1,14801)
        271          6         21 -4.22387013E-05                    1_GWF-(1,26486)  3.92798387E-06                    1_GWF-(1,14801)
        272          6         22 -3.57405340E-05                    1_GWF-(1,26487) -8.93779347E-06                    1_GWF-(1,14801)
        273          6         23 -3.01159356E-05                    1_GWF-(1,26486)  1.06496908E-05                    1_GWF-(1,14801)
        274          6         24 -2.69223542E-05                    1_GWF-(1,20574) -9.39525944E-06                    1_GWF-(1,14801)
        275          6         25 -2.43392995E-05                    1_GWF-(1,21475)  7.94403043E-06                    1_GWF-(1,14801)
        276          6         26 -2.14490919E-05                    1_GWF-(1,21408) -6.43229110E-06                    1_GWF-(1,14801)
        277          6         27 -2.14265228E-05                     1_GWF-(1,8049)  5.09304277E-06                    1_GWF-(1,14801)
        278          6         28 -1.47109716E-05                     1_GWF-(1,8333)  3.06451669E-06                    1_GWF-(1,14800)
        279          6         29 -1.29885811E-05                    1_GWF-(1,23611)  2.60499300E-06                    1_GWF-(1,14801)
        280          6         30  1.40143825E-05                    1_GWF-(1,26543)  1.35792837E-06                    1_GWF-(1,14798)
        281          6         31  1.95461444E-05                    1_GWF-(1,26588)  7.97058693E-07                    1_GWF-(1,14799)
        282          6         32 -1.72776236E-05                    1_GWF-(1,26588)  1.64300385E-06                    1_GWF-(1,14801)
        283          6         33  1.51996359E-05                    1_GWF-(1,26588)  1.46247560E-06                    1_GWF-(1,14800)
        284          6         34 -9.90116938E-06                    1_GWF-(1,26588)  1.66654501E-06                    1_GWF-(1,14799)
        285          6         35  1.22068027E-05                     1_GWF-(1,7966) -1.21907914E-06                    1_GWF-(1,14799)
        286          6         36  1.39654297E-05                     1_GWF-(1,7967)  1.41561425E-06                    1_GWF-(1,14799)
        287          6         37  1.45519691E-05                     1_GWF-(1,8084)  1.15422400E-06                    1_GWF-(1,14798)
        288          6         38  1.05751723E-05                     1_GWF-(1,7981)  1.67263458E-06                    1_GWF-(1,14799)
        289          6         39  8.71254866E-06                     1_GWF-(1,8078)  1.07932807E-06                    1_GWF-(1,14798)
        290          6         40 -7.98902983E-06                    1_GWF-(1,26422)  1.36444309E-06                    1_GWF-(1,14799)
        291          6         41  8.59756617E-06                    1_GWF-(1,26486)  7.82416150E-07                    1_GWF-(1,14798)
        292          6         42 -8.28153856E-06                    1_GWF-(1,26422)  7.03836708E-07                    1_GWF-(1,14800)
        293          6         43  9.19987731E-06                    1_GWF-(1,26486)  8.57896715E-07                    1_GWF-(1,14801)
        294          6         44 -9.63997958E-06                    1_GWF-(1,26486)  5.76957871E-07                    1_GWF-(1,14800)
        295          6         45  8.60149438E-06                    1_GWF-(1,26486)  6.25076436E-07                    1_GWF-(1,14799)
        296          6         46 -8.30920662E-06                    1_GWF-(1,26486)  3.43559226E-07                    1_GWF-(1,14798)
        297          6         47 -8.06426855E-06                    1_GWF-(1,26588)  3.86989914E-07                    1_GWF-(1,14800)
        298          6         48 -6.24835592E-06                    1_GWF-(1,26420)  5.03807105E-07                    1_GWF-(1,14801)
        299          6         49  7.26831463E-06                    1_GWF-(1,11380)  5.17523180E-07                    1_GWF-(1,14800)
        300          6         50  1.03038564E-05                    1_GWF-(1,11369)  1.34779523E-06                    1_GWF-(1,14799)
        301          7          1 -1.26608970E-05                    1_GWF-(1,11369)  7.02885304E-07                    1_GWF-(1,14798)
        302          7          2 -8.78600796E-06                    1_GWF-(1,11378)  7.19333898E-07                    1_GWF-(1,14799)
        303          7          3  5.78696152E-06                    1_GWF-(1,26622)  2.89958764E-07                    1_GWF-(1,14800)
        304          7          4  6.38623389E-06                    1_GWF-(1,26649)  2.98162007E-07                    1_GWF-(1,14798)
        305          7          5 -6.45555813E-06                     1_GWF-(1,8186)  7.02247633E-07                    1_GWF-(1,14799)
        306          7          6 -5.42355399E-06                     1_GWF-(1,8021)  5.88274168E-07                    1_GWF-(1,14798)
        307          7          7  4.89139056E-06                    1_GWF-(1,26486)  7.78473910E-07                    1_GWF-(1,14799)
        308          7          8 -5.66799398E-06                    1_GWF-(1,11378)  4.62756074E-07                    1_GWF-(1,14800)
        309          7          9  6.87760697E-06                    1_GWF-(1,20584)  5.02217775E-07                    1_GWF-(1,14801)
        310          7         10 -6.83998223E-06                    1_GWF-(1,26486)  5.85532220E-07                    1_GWF-(1,14799)
        311          7         11  7.12661525E-06                    1_GWF-(1,26486)  5.24071082E-07                    1_GWF-(1,14798)
        312          7         12 -6.38408997E-06                    1_GWF-(1,26486)  5.67343623E-07                    1_GWF-(1,14799)
        313          7         13 -6.04051798E-06                    1_GWF-(1,26487)  3.20321529E-07                    1_GWF-(1,14800)
        314          7         14 -6.09258319E-06                    1_GWF-(1,26420)  3.37580586E-07                    1_GWF-(1,14798)
        315          7         15 -5.90197072E-06                     1_GWF-(1,7960)  6.26588690E-07                    1_GWF-(1,14799)
        316          7         16 -5.14884287E-06                     1_GWF-(1,7951) -7.29268455E-07                    1_GWF-(1,14799)
        317          7         17 -3.73786018E-06                     1_GWF-(1,7955)  8.93817067E-07                    1_GWF-(1,14799)
        318          7         18 -3.62845988E-06                    1_GWF-(1,26623) -6.23887955E-07                    1_GWF-(1,14799)
        319          7         19 -5.17106059E-06                    1_GWF-(1,26665)  5.39454241E-07                    1_GWF-(1,14799)
        320          7         20  5.02593453E-06                    1_GWF-(1,26665)  2.24846509E-07                    1_GWF-(1,14800)
        321          7         21 -4.75159212E-06                    1_GWF-(1,26665)  4.88698930E-07                    1_GWF-(1,14798)
        322          7         22 -3.79909696E-06                    1_GWF-(1,26588)  8.88304331E-07                    1_GWF-(1,14799)
        323          7         23  3.99215922E-06                    1_GWF-(1,26588) -7.74424313E-07                    1_GWF-(1,14799)
        324          7         24  3.81455407E-06                    1_GWF-(1,26543)  7.87721473E-07                    1_GWF-(1,14799)
        325          7         25  4.56749188E-06                    1_GWF-(1,26588) -5.30366275E-07                    1_GWF-(1,14799)
        326          7         26  4.26226475E-06                    1_GWF-(1,26543)  2.69355040E-07                    1_GWF-(1,14801)
        327          7         27  3.91352113E-06                    1_GWF-(1,26588)  4.62434224E-07                    1_GWF-(1,14799)
        328          7         28  3.09165808E-06                    1_GWF-(1,26543) -6.61977060E-07                    1_GWF-(1,14799)
        329          7         29 -2.19085613E-06                    1_GWF-(1,26663)  6.68104093E-07                    1_GWF-(1,14799)
        330          7         30 -2.67475955E-06                     1_GWF-(1,8040) -6.96041742E-07                    1_GWF-(1,14799)
        331          7         31 -2.02956978E-06                    1_GWF-(1,21259)  5.97871500E-07                    1_GWF-(1,14799)
        332          7         32 -2.03308527E-06                     1_GWF-(1,8215) -3.98398861E-07                    1_GWF-(1,14801)
        333          7         33 -2.40392649E-06                    1_GWF-(1,26486)  3.60913109E-07                    1_GWF-(1,14801)
        334          7         34 -2.49587636E-06                    1_GWF-(1,26487)  1.47875221E-07                    1_GWF-(1,14799)
        335          7         35 -2.13560155E-06                    1_GWF-(1,26486) -3.23447320E-07                    1_GWF-(1,14799)
        336          7         36 -1.58868384E-06                    1_GWF-(1,26487)  3.75552747E-07                    1_GWF-(1,14801)
        337          7         37  1.12060826E-06                     1_GWF-(1,8061) -4.83149099E-07                    1_GWF-(1,14801)
        338          7         38  1.13877975E-06                     1_GWF-(1,8091)  5.48632544E-07                    1_GWF-(1,14801)
        339          7         39  1.34616326E-06                     1_GWF-(1,8013) -6.05199553E-07                    1_GWF-(1,14801)
        340          7         40  1.15256101E-06                     1_GWF-(1,8008)  6.29551994E-07                    1_GWF-(1,14801)
        341          7         41 -8.74134802E-07                    1_GWF-(1,22684) -5.85193980E-07                    1_GWF-(1,14801)
        342          8          1  7.21251064E-07                    1_GWF-(1,26622)  5.12776028E-07                    1_GWF-(1,14801)
 --------------------------------------------------------------------------------------------------------------------------------------



 MEMORY MANAGER TOTAL STORAGE BY DATA TYPE, IN MEGABYTES
 -------------------------------
                    ALLOCATED   
 DATA TYPE           MEMORY     
 -------------------------------
 Character        4.66090000E-02
 Logical          4.40000000E-05
 Integer          5.2037920     
 Real             11.901376     
 -------------------------------
 Total            17.151821     
 -------------------------------


 
 Run end date and time (yyyy/mm/dd hh:mm:ss): 2022/04/29 15:36:54
 Elapsed run time:  0.504 Seconds
 Normal termination of simulation.
