                                   MODFLOW 6
                U.S. GEOLOGICAL SURVEY MODULAR HYDROLOGIC MODEL
                            VERSION 6.2.2 07/30/2021

   MODFLOW 6 compiled Jul 31 2021 14:22:53 with IFORT compiler (ver. 19.10.3)

This software has been approved for release by the U.S. Geological 
Survey (USGS). Although the software has been subjected to rigorous 
review, the USGS reserves the right to update the software as needed 
pursuant to further analysis and review. No warranty, expressed or 
implied, is made by the USGS or the U.S. Government as to the 
functionality of the software and related material nor shall the 
fact of release constitute any such warranty. Furthermore, the 
software is released on condition that neither the USGS nor the U.S. 
Government shall be held liable for any damages resulting from its 
authorized or unauthorized use. Also refer to the USGS Water 
Resources Software User Rights Notice for complete use, copyright, 
and distribution information.


System command used to initiate simulation:
mf6

MODFLOW was compiled using uniform precision.

Real Variables
  KIND: 8
  TINY (smallest non-zero value):    2.225074-308
  HUGE (largest value):    1.797693+308
  PRECISION: 15
  BIT SIZE: 64

Integer Variables
  KIND: 4
  HUGE (largest value): 2147483647
  BIT SIZE: 32

Long Integer Variables
  KIND: 8
  HUGE (largest value): 9223372036854775807
  BIT SIZE: 64

Logical Variables
  KIND: 4
  BIT SIZE: 32
 

 OPENED mfsim.nam
 FILE TYPE:NAM   UNIT 1001   STATUS:OLD                 
 FORMAT:FORMATTED              ACCESS:SEQUENTIAL          
 ACTION:READ                

 # File generated by Flopy version 3.3.5 on 04/28/2022 at 15:59:01.

 READING SIMULATION OPTIONS
 END OF SIMULATION OPTIONS

 READING SIMULATION TIMING

 OPENED mfsim.tdis
 FILE TYPE:TDIS   UNIT 1002   STATUS:OLD                 
 FORMAT:FORMATTED              ACCESS:SEQUENTIAL          
 ACTION:READ                


 TDIS -- TEMPORAL DISCRETIZATION PACKAGE,
 VERSION 1 : 11/13/2014 - INPUT READ FROM UNIT 1002
 # File generated by Flopy version 3.3.5 on 04/28/2022 at 15:59:01.
 PROCESSING TDIS OPTIONS
    SIMULATION TIME UNIT IS SECONDS
 END OF TDIS OPTIONS
 PROCESSING TDIS DIMENSIONS
    1 STRESS PERIOD(S) IN SIMULATION
 END OF TDIS DIMENSIONS
 PROCESSING TDIS PERIODDATA


 STRESS PERIOD     LENGTH       TIME STEPS     MULTIPLIER FOR DELT
 ----------------------------------------------------------------------------
        1         5.000000          1                    1.000
 END OF TDIS PERIODDATA
 END OF SIMULATION TIMING

 READING SIMULATION MODELS
    GWF6 model ML will be created as model 1
 END OF SIMULATION MODELS

 READING SIMULATION EXCHANGES
 END OF SIMULATION EXCHANGES

 READING SOLUTIONGROUP

 Creating solution: SLN_1           

 OPENED mfsim.ims
 FILE TYPE:IMS   UNIT 1015   STATUS:OLD                 
 FORMAT:FORMATTED              ACCESS:SEQUENTIAL          
 ACTION:READ                

 END OF SIMULATION SOLUTIONGROUP

 IMS -- ITERATIVE MODEL SOLUTION PACKAGE, VERSION 6, 4/28/2017
         INPUT READ FROM UNIT 1015
 # File generated by Flopy version 3.3.5 on 04/28/2022 at 15:59:01.

 PROCESSING IMS OPTIONS
 END OF IMS OPTIONS

 PROCESSING IMS NONLINEAR
 END OF IMS NONLINEAR DATA
 ***UNDER-RELAXATION WILL NOT BE USED***
 
 ***IMS LINEAR SOLVER WILL BE USED***

 IMSLINEAR -- UNSTRUCTURED LINEAR SOLUTION PACKAGE, VERSION 8, 04/28/2017

 PROCESSING LINEAR DATA
 END OF LINEAR DATA
 
 OUTER ITERATION CONVERGENCE CRITERION    (DVCLOSE) =    0.100000E-04
 MAXIMUM NUMBER OF OUTER ITERATIONS        (MXITER) = 100
 SOLVER PRINTOUT INDEX                     (IPRIMS) = 2
 NONLINEAR ITERATION METHOD            (NONLINMETH) = 0
 LINEAR SOLUTION METHOD                   (LINMETH) = 1

       SOLUTION BY THE        CONJUGATE-GRADIENT       METHOD
 ------------------------------------------------------------------
 MAXIMUM OF 100 CALLS OF SOLUTION ROUTINE
 MAXIMUM OF 50 INTERNAL ITERATIONS PER CALL TO SOLUTION ROUTINE
 LINEAR ACCELERATION METHOD            = CG        
 MATRIX PRECONDITIONING TYPE           = INCOMPLETE LU       
 MATRIX SCALING APPROACH               = NO SCALING          
 MATRIX REORDERING APPROACH            = ORIGINAL ORDERING        
 NUMBER OF ORTHOGONALIZATIONS          = 0
 HEAD CHANGE CRITERION FOR CLOSURE     =    0.10000E-05
 RESIDUAL CHANGE CRITERION FOR CLOSURE =    0.10000E-04
 RESIDUAL CONVERGENCE OPTION           = 1
 RESIDUAL CONVERGENCE NORM             = INFINITY NORM S 
 RELAXATION FACTOR                     =    0.00000E+00



 
    Solving:  Stress period:     1    Time step:     1
 
1
                            STRESS PERIOD NO. 1, LENGTH =   5.000000    
                            -----------------------------------------------
                            NUMBER OF TIME STEPS = 1
                            MULTIPLIER FOR DELT =     1.000
                            INITIAL TIME STEP SIZE =   5.000000    

 SLN_1 OUTER ITERATION SUMMARY
 ----------------------------------------------------------------------------------------------------------
                                OUTER      INNER                    STEP   MAXIMUM CHANGE MODEL-(CELLID) OR
 OUTER ITERATION STEP       ITERATION  ITERATION  MAXIMUM CHANGE SUCCESS             MODEL-PACKAGE-(NUMBER)
 ----------------------------------------------------------------------------------------------------------
 Model                              1         50       44.155324                            1_GWF-(1,26519)
 Model                              2         50      -39.191786                            1_GWF-(1,26519)
 Model                              3         50     -0.92942631                            1_GWF-(1,21057)
 Model                              4         50      0.30316850                            1_GWF-(1,25264)
 Model                              5         50 -4.75643615E-02                            1_GWF-(1,25410)
 Model                              6         50  1.96735463E-02                            1_GWF-(1,25265)
 Model                              7         50 -3.34364468E-03                            1_GWF-(1,25412)
 Model                              8         50  1.26420850E-03                            1_GWF-(1,25265)
 Model                              9         50 -2.24341321E-04                            1_GWF-(1,25412)
 Model                             10         50  8.80652495E-05                            1_GWF-(1,25265)
 Model                             11         47 -1.58029698E-05                            1_GWF-(1,25419)
 Model                             12          1  5.62618245E-07       *                    1_GWF-(1,26218)
 ----------------------------------------------------------------------------------------------------------


 12 CALLS TO NUMERICAL SOLUTION IN TIME STEP 1 STRESS PERIOD 1
 548 TOTAL ITERATIONS

 SLN_1 INNER ITERATION SUMMARY
 --------------------------------------------------------------------------------------------------------------------------------------
      TOTAL      OUTER      INNER                                                            MAXIMUM                                   
  ITERATION  ITERATION  ITERATION  MAXIMUM CHANGE      MAXIMUM CHANGE MODEL-(CELLID)        RESIDUAL    MAXIMUM RESIDUAL MODEL-(CELLID)
 --------------------------------------------------------------------------------------------------------------------------------------
          1          1          1      -11.850824                    1_GWF-(1,12785)      0.15902118                    1_GWF-(1,11171)
          2          1          2       7.7950903                    1_GWF-(1,26516)      0.21849373                    1_GWF-(1,10969)
          3          1          3       9.4368776                    1_GWF-(1,26565)      0.20941078                    1_GWF-(1,10968)
          4          1          4       8.7022931                    1_GWF-(1,26510)      0.18706809                    1_GWF-(1,10955)
          5          1          5       6.7444156                    1_GWF-(1,26647)      0.18289732                    1_GWF-(1,10869)
          6          1          6       7.1517569                    1_GWF-(1,26649)      0.14799423                    1_GWF-(1,11140)
          7          1          7       5.5232144                    1_GWF-(1,26622)      0.19732839                    1_GWF-(1,10969)
          8          1          8       4.5008183                    1_GWF-(1,26665)      0.15996691                    1_GWF-(1,10963)
          9          1          9       3.8569080                    1_GWF-(1,26647)      0.16273085                    1_GWF-(1,10956)
         10          1         10       4.5219699                    1_GWF-(1,26665)      0.16107336                    1_GWF-(1,10869)
         11          1         11       4.1571438                    1_GWF-(1,26544)      0.13987919                    1_GWF-(1,10969)
         12          1         12       3.0505517                    1_GWF-(1,26486)      0.13973774                    1_GWF-(1,10966)
         13          1         13       2.9771474                    1_GWF-(1,26622)      0.13090054                    1_GWF-(1,10962)
         14          1         14       2.4567857                    1_GWF-(1,26623)      0.12467956                    1_GWF-(1,10969)
         15          1         15       2.3059505                    1_GWF-(1,26622)      0.14177475                    1_GWF-(1,10968)
         16          1         16       1.5296008                    1_GWF-(1,26623)      0.12984690                    1_GWF-(1,10961)
         17          1         17      -1.5775580                    1_GWF-(1,26623)      0.13261146                    1_GWF-(1,10958)
         18          1         18       2.4750019                    1_GWF-(1,26588)      0.14325360                    1_GWF-(1,10969)
         19          1         19      -3.3869906                    1_GWF-(1,26588)      0.13951068                    1_GWF-(1,10968)
         20          1         20      -3.1753650                    1_GWF-(1,26543)      0.12874895                    1_GWF-(1,10963)
         21          1         21      -2.7233822                    1_GWF-(1,26544)      0.11795792                    1_GWF-(1,10958)
         22          1         22      -3.5199213                    1_GWF-(1,26486)      0.12812173                    1_GWF-(1,10969)
         23          1         23      -3.9692801                    1_GWF-(1,26487)      0.11210772                    1_GWF-(1,10965)
         24          1         24      -4.2453015                    1_GWF-(1,26486)      0.12117578                    1_GWF-(1,10963)
         25          1         25      -3.3766681                    1_GWF-(1,26487)      0.10535778                    1_GWF-(1,10955)
         26          1         26      -2.2696412                    1_GWF-(1,26588)  9.12732355E-02                    1_GWF-(1,10869)
         27          1         27       2.2105098                    1_GWF-(1,26420)      0.11268517                    1_GWF-(1,10965)
         28          1         28       1.8197696                    1_GWF-(1,26487)      0.11249057                    1_GWF-(1,10957)
         29          1         29       1.7936429                    1_GWF-(1,26420)      0.10175997                    1_GWF-(1,10872)
         30          1         30       1.9315157                    1_GWF-(1,26422)      0.10194768                    1_GWF-(1,10965)
         31          1         31       2.1960864                    1_GWF-(1,26350)      0.11469379                    1_GWF-(1,10960)
         32          1         32       2.5293077                    1_GWF-(1,26422)  9.65816229E-02                    1_GWF-(1,10958)
         33          1         33       2.4566089                    1_GWF-(1,26350) -7.68103501E-02                    1_GWF-(1,10960)
         34          1         34       2.3773916                    1_GWF-(1,26422)  6.50894109E-02                    1_GWF-(1,10966)
         35          1         35      -2.0274483                    1_GWF-(1,26422)  7.12514335E-02                    1_GWF-(1,10958)
         36          1         36      -1.5414021                    1_GWF-(1,26350)  6.11042006E-02                    1_GWF-(1,10968)
         37          1         37      -1.2297527                    1_GWF-(1,26422)  4.64058713E-02                    1_GWF-(1,10961)
         38          1         38     -0.93973967                    1_GWF-(1,24901) -5.25892198E-02                    1_GWF-(1,10967)
         39          1         39     -0.86862604                    1_GWF-(1,24895)  4.71024654E-02                    1_GWF-(1,10968)
         40          1         40      -1.0628505                    1_GWF-(1,26648)  4.35307663E-02                    1_GWF-(1,10961)
         41          1         41      -1.3914330                    1_GWF-(1,26649)  4.70308557E-02                    1_GWF-(1,10963)
         42          1         42      -1.4891338                    1_GWF-(1,26648) -4.51213924E-02                    1_GWF-(1,10991)
         43          1         43      -1.2985946                    1_GWF-(1,26586) -5.81997711E-02                    1_GWF-(1,11138)
         44          1         44      -1.1594446                    1_GWF-(1,26623)  4.38052235E-02                    1_GWF-(1,11140)
         45          1         45      0.98063444                    1_GWF-(1,26218) -5.23329186E-02                    1_GWF-(1,11140)
         46          1         46     -0.86117390                    1_GWF-(1,21319) -4.65621338E-02                    1_GWF-(1,11138)
         47          1         47      -1.1478537                    1_GWF-(1,26217)  4.76657683E-02                    1_GWF-(1,11139)
         48          1         48      -1.4801516                    1_GWF-(1,26218)  4.86478352E-02                    1_GWF-(1,14868)
         49          1         49      -1.5278029                    1_GWF-(1,26217) -4.91269712E-02                    1_GWF-(1,10990)
         50          1         50      -1.4068588                    1_GWF-(1,26218)  4.37461332E-02                    1_GWF-(1,14868)
         51          2          1      -40.876646                    1_GWF-(1,26519)     -0.14121525                    1_GWF-(1,26519)
         52          2          2      -15.801916                    1_GWF-(1,26513) -4.44974548E-02                    1_GWF-(1,26516)
         53          2          3      -7.5337672                    1_GWF-(1,26637)  3.50614261E-02                    1_GWF-(1,26516)
         54          2          4      -9.1716239                    1_GWF-(1,26665)  3.50317289E-02                    1_GWF-(1,14868)
         55          2          5      -4.8484436                    1_GWF-(1,26622)  2.84144762E-02                    1_GWF-(1,14869)
         56          2          6      -4.6540126                    1_GWF-(1,26589)  4.25557951E-02                    1_GWF-(1,14868)
         57          2          7      -3.7611694                    1_GWF-(1,26543)  3.97142796E-02                    1_GWF-(1,14869)
         58          2          8      -3.4950585                    1_GWF-(1,26486)  6.45222128E-02                    1_GWF-(1,14868)
         59          2          9      -2.3586425                    1_GWF-(1,26487)  4.20287208E-02                    1_GWF-(1,14869)
         60          2         10      -2.2317511                    1_GWF-(1,26350)  4.10658516E-02                    1_GWF-(1,14868)
         61          2         11      -1.8578538                    1_GWF-(1,26348)  1.05689469E-02                    1_GWF-(1,14868)
         62          2         12      -1.6236002                    1_GWF-(1,26217)  2.36546676E-02                    1_GWF-(1,14869)
         63          2         13      -1.0408585                    1_GWF-(1,26218)  3.70210803E-02                    1_GWF-(1,14868)
         64          2         14     -0.68462053                    1_GWF-(1,26649)  3.00451285E-02                    1_GWF-(1,14869)
         65          2         15     -0.72619069                    1_GWF-(1,26622)  2.56499213E-02                    1_GWF-(1,14868)
         66          2         16      0.88424166                    1_GWF-(1,26420)  2.48640299E-02                    1_GWF-(1,14868)
         67          2         17       1.1591172                    1_GWF-(1,26218)  2.80549360E-02                    1_GWF-(1,14869)
         68          2         18      0.95841833                    1_GWF-(1,26217)  3.92407480E-02                    1_GWF-(1,14868)
         69          2         19      0.83840732                    1_GWF-(1,26218)  2.50537541E-02                    1_GWF-(1,14869)
         70          2         20      0.65246542                    1_GWF-(1,26543)  2.30471746E-02                    1_GWF-(1,14868)
         71          2         21      0.92843391                    1_GWF-(1,26588)  1.51242255E-02                    1_GWF-(1,14868)
         72          2         22      0.97706329                    1_GWF-(1,26543)  2.44242373E-02                    1_GWF-(1,14869)
         73          2         23     -0.60593181                    1_GWF-(1,26218)  4.48105473E-02                    1_GWF-(1,14868)
         74          2         24     -0.80785889                    1_GWF-(1,26487)  3.58511250E-02                    1_GWF-(1,14869)
         75          2         25      -1.1044065                    1_GWF-(1,26486)  3.62434586E-02                    1_GWF-(1,14868)
         76          2         26      -1.1003278                    1_GWF-(1,26487)  1.21114965E-02                    1_GWF-(1,14868)
         77          2         27     -0.71079405                    1_GWF-(1,26588)  2.76834909E-02                    1_GWF-(1,14869)
         78          2         28     -0.34770763                    1_GWF-(1,26398)  4.69668736E-02                    1_GWF-(1,14868)
         79          2         29     -0.39158239                    1_GWF-(1,26327)  4.35752788E-02                    1_GWF-(1,14869)
         80          2         30      0.35794955                    1_GWF-(1,26420)  6.70976902E-02                    1_GWF-(1,14868)
         81          2         31     -0.26025441                    1_GWF-(1,26175)  6.14201307E-02                    1_GWF-(1,14869)
         82          2         32     -0.26714323                    1_GWF-(1,26674)  9.27926508E-02                    1_GWF-(1,14868)
         83          2         33     -0.24332707                    1_GWF-(1,26350) -7.71709673E-02                    1_GWF-(1,14868)
         84          2         34     -0.19847153                    1_GWF-(1,25803)  9.97615836E-02                    1_GWF-(1,14868)
         85          2         35      0.31585471                    1_GWF-(1,26422)  6.74222965E-02                    1_GWF-(1,14869)
         86          2         36      0.26694959                    1_GWF-(1,26350)  7.02934375E-02                    1_GWF-(1,14868)
         87          2         37      0.20245027                    1_GWF-(1,26422)  3.87284858E-02                    1_GWF-(1,14869)
         88          2         38      0.20456050                    1_GWF-(1,26544)  2.94456684E-02                    1_GWF-(1,14868)
         89          2         39     -0.21310196                    1_GWF-(1,26649)  2.82869201E-02                    1_GWF-(1,14868)
         90          2         40     -0.29949885                    1_GWF-(1,26486)  5.09176792E-02                    1_GWF-(1,14869)
         91          2         41      0.23352937                    1_GWF-(1,26422)  9.49350637E-02                    1_GWF-(1,14868)
         92          2         42     -0.23983353                    1_GWF-(1,26421)     -0.11035634                    1_GWF-(1,14868)
         93          2         43     -0.35813216                    1_GWF-(1,26350)      0.13783296                    1_GWF-(1,14868)
         94          2         44     -0.21915856                    1_GWF-(1,26486)     -0.12450325                    1_GWF-(1,14868)
         95          2         45     -0.25891148                    1_GWF-(1,26420)      0.13048675                    1_GWF-(1,14868)
         96          2         46     -0.17218594                    1_GWF-(1,26421) -9.31558956E-02                    1_GWF-(1,14868)
         97          2         47     -0.24453700                    1_GWF-(1,26350)  8.06084191E-02                    1_GWF-(1,14868)
         98          2         48     -0.17130067                    1_GWF-(1,26664) -5.48341246E-02                    1_GWF-(1,14868)
         99          2         49     -0.16221733                    1_GWF-(1,26649)  5.55785277E-02                    1_GWF-(1,14868)
        100          2         50     -0.19523994                    1_GWF-(1,26623) -4.12743091E-02                    1_GWF-(1,14868)
        101          3          1     -0.22435569                    1_GWF-(1,16215)  2.60754799E-02                    1_GWF-(1,14868)
        102          3          2      0.16923518                    1_GWF-(1,26586) -5.41838544E-02                    1_GWF-(1,14868)
        103          3          3      0.23747780                    1_GWF-(1,26623)  6.20958191E-02                    1_GWF-(1,14868)
        104          3          4      0.17221604                    1_GWF-(1,26649) -4.68559447E-02                    1_GWF-(1,14868)
        105          3          5     -0.18444516                    1_GWF-(1,16130)  6.19433747E-02                    1_GWF-(1,14868)
        106          3          6      0.15966216                    1_GWF-(1,16130) -6.75119383E-02                    1_GWF-(1,14868)
        107          3          7      0.12977437                    1_GWF-(1,26198)  6.74073448E-02                    1_GWF-(1,14868)
        108          3          8     -0.16299544                    1_GWF-(1,26674) -5.23022678E-02                    1_GWF-(1,14868)
        109          3          9      0.13792621                    1_GWF-(1,16130)  6.07831172E-02                    1_GWF-(1,14868)
        110          3         10      0.13346671                    1_GWF-(1,26350) -4.45035046E-02                    1_GWF-(1,14868)
        111          3         11      0.13290737                    1_GWF-(1,26486)  3.83886204E-02                    1_GWF-(1,14868)
        112          3         12     -0.15918727                    1_GWF-(1,26422)  1.92031904E-02                    1_GWF-(1,14869)
        113          3         13     -0.11488108                    1_GWF-(1,26350)  1.33157225E-02                    1_GWF-(1,14868)
        114          3         14      0.13596183                    1_GWF-(1,26350)  4.81775441E-03                    1_GWF-(1,14868)
        115          3         15     -0.12541495                    1_GWF-(1,26350)  1.12058326E-02                    1_GWF-(1,14869)
        116          3         16     -0.13085736                    1_GWF-(1,26422)  2.41638604E-02                    1_GWF-(1,14868)
        117          3         17      0.10456698                    1_GWF-(1,26422)  2.29948710E-02                    1_GWF-(1,14869)
        118          3         18      0.12136422                    1_GWF-(1,26350)  3.71381345E-02                    1_GWF-(1,14868)
        119          3         19 -7.99307021E-02                    1_GWF-(1,26350) -3.96370500E-02                    1_GWF-(1,14868)
        120          3         20  8.89058878E-02                    1_GWF-(1,26420)  4.76157775E-02                    1_GWF-(1,14868)
        121          3         21 -8.66204210E-02                    1_GWF-(1,26420) -4.19743802E-02                    1_GWF-(1,14868)
        122          3         22 -9.97275810E-02                    1_GWF-(1,25297)  4.44227161E-02                    1_GWF-(1,14868)
        123          3         23     -0.11972622                    1_GWF-(1,25444) -3.34538290E-02                    1_GWF-(1,14868)
        124          3         24      0.12878540                    1_GWF-(1,26588)  2.87237465E-02                    1_GWF-(1,14868)
        125          3         25      0.16678351                    1_GWF-(1,26487)  8.57796368E-03                    1_GWF-(1,14869)
        126          3         26      0.19975850                    1_GWF-(1,26420)  9.87338704E-03                    1_GWF-(1,14869)
        127          3         27      0.21913697                    1_GWF-(1,26487)  2.27323718E-02                    1_GWF-(1,14868)
        128          3         28     -0.14011971                    1_GWF-(1,26487) -1.70507694E-02                    1_GWF-(1,14868)
        129          3         29     -0.16573923                    1_GWF-(1,26486)  1.60700891E-02                    1_GWF-(1,14868)
        130          3         30     -0.15732647                    1_GWF-(1,26588)  3.70238342E-03                    1_GWF-(1,14869)
        131          3         31     -0.15373487                    1_GWF-(1,26543)  5.25658989E-03                    1_GWF-(1,14869)
        132          3         32     -0.15102588                    1_GWF-(1,26588)  1.19412001E-02                    1_GWF-(1,14868)
        133          3         33      0.11988388                    1_GWF-(1,26588)  9.27461644E-03                    1_GWF-(1,14869)
        134          3         34  9.07728951E-02                    1_GWF-(1,26543)  1.04717047E-02                    1_GWF-(1,14868)
        135          3         35     -0.12017669                    1_GWF-(1,26665)  3.02084753E-03                    1_GWF-(1,14782)
        136          3         36      0.10889600                    1_GWF-(1,26665)  2.98898887E-03                    1_GWF-(1,14869)
        137          3         37      0.12882679                    1_GWF-(1,26666)  6.22033748E-03                    1_GWF-(1,14868)
        138          3         38      0.13425573                    1_GWF-(1,26622) -4.98942212E-03                    1_GWF-(1,14868)
        139          3         39  9.74224367E-02                    1_GWF-(1,26217)  4.31193441E-03                    1_GWF-(1,14868)
        140          3         40     -0.13883276                    1_GWF-(1,26665)  1.66283824E-03                    1_GWF-(1,14782)
        141          3         41      0.13537387                    1_GWF-(1,26665) -2.96855641E-03                    1_GWF-(1,14868)
        142          3         42     -0.15518187                    1_GWF-(1,26665)  5.14400652E-03                    1_GWF-(1,14868)
        143          3         43     -0.13789206                    1_GWF-(1,26666) -5.07815409E-03                    1_GWF-(1,14868)
        144          3         44      0.12722520                    1_GWF-(1,26543)  5.26083957E-03                    1_GWF-(1,14868)
        145          3         45      0.14752879                    1_GWF-(1,26649)  3.68077571E-03                    1_GWF-(1,14782)
        146          3         46      0.15126751                    1_GWF-(1,26648)  5.53459434E-03                    1_GWF-(1,14867)
        147          3         47  9.16057032E-02                    1_GWF-(1,26664) -4.59721757E-03                    1_GWF-(1,14867)
        148          3         48  9.46261802E-02                    1_GWF-(1,26217)  4.16102632E-03                    1_GWF-(1,14867)
        149          3         49     -0.10505582                    1_GWF-(1,26648) -4.98770825E-03                    1_GWF-(1,14867)
        150          3         50     -0.10622904                    1_GWF-(1,26218)  4.23521781E-03                    1_GWF-(1,14867)
        151          4          1 -6.87109757E-02                    1_GWF-(1,26217) -3.26788396E-03                    1_GWF-(1,14867)
        152          4          2 -7.01914563E-02                    1_GWF-(1,26218)  3.21411888E-03                    1_GWF-(1,14867)
        153          4          3 -7.66560137E-02                    1_GWF-(1,26217)  2.44535559E-03                    1_GWF-(1,14782)
        154          4          4 -7.70918107E-02                    1_GWF-(1,26218)  3.02171628E-03                    1_GWF-(1,14867)
        155          4          5 -5.57920922E-02                    1_GWF-(1,26422)  1.94102882E-03                    1_GWF-(1,14782)
        156          4          6 -5.04398975E-02                    1_GWF-(1,26218)  1.97164865E-03                    1_GWF-(1,14868)
        157          4          7 -3.86737924E-02                    1_GWF-(1,26485) -1.71039381E-03                    1_GWF-(1,14868)
        158          4          8 -5.25133345E-02                    1_GWF-(1,26665)  1.86667131E-03                    1_GWF-(1,14868)
        159          4          9 -6.33451317E-02                    1_GWF-(1,26666) -1.78795111E-03                    1_GWF-(1,14868)
        160          4         10 -6.25317599E-02                    1_GWF-(1,26665) -1.16082822E-03                    1_GWF-(1,14867)
        161          4         11  6.41225439E-02                    1_GWF-(1,26665)  5.69199541E-04                    1_GWF-(1,10962)
        162          4         12  3.89386491E-02                    1_GWF-(1,26622) -1.22605499E-03                    1_GWF-(1,14868)
        163          4         13  3.92166977E-02                    1_GWF-(1,26623)  1.68933711E-03                    1_GWF-(1,14868)
        164          4         14  5.32290404E-02                    1_GWF-(1,26622)  1.20911148E-03                    1_GWF-(1,14869)
        165          4         15  4.53706237E-02                    1_GWF-(1,26623)  7.24592774E-04                    1_GWF-(1,14868)
        166          4         16  3.62262735E-02                    1_GWF-(1,26665)  9.95248244E-04                    1_GWF-(1,14868)
        167          4         17  2.62473770E-02                    1_GWF-(1,26588) -1.36229150E-03                    1_GWF-(1,14868)
        168          4         18  2.11767886E-02                    1_GWF-(1,26543)  1.54844723E-03                    1_GWF-(1,14868)
        169          4         19 -2.50479520E-02                    1_GWF-(1,26543) -1.54379736E-03                    1_GWF-(1,14868)
        170          4         20 -3.47526616E-02                    1_GWF-(1,26588)  6.94229819E-04                    1_GWF-(1,14868)
        171          4         21 -3.40066910E-02                    1_GWF-(1,26543)  1.05299062E-03                    1_GWF-(1,14868)
        172          4         22 -2.53436090E-02                    1_GWF-(1,26588)  1.78124140E-03                    1_GWF-(1,14869)
        173          4         23 -3.18628063E-02                    1_GWF-(1,26486)  2.79413120E-03                    1_GWF-(1,14868)
        174          4         24 -3.67971735E-02                    1_GWF-(1,26487)  2.02097713E-03                    1_GWF-(1,14869)
        175          4         25 -3.15660543E-02                    1_GWF-(1,26420)  9.68677022E-04                    1_GWF-(1,14868)
        176          4         26 -2.69778815E-02                    1_GWF-(1,26487)  1.68084189E-03                    1_GWF-(1,14868)
        177          4         27 -1.98344474E-02                    1_GWF-(1,26420) -2.77840934E-03                    1_GWF-(1,14868)
        178          4         28 -1.32827609E-02                    1_GWF-(1,26421)  4.52248148E-03                    1_GWF-(1,14868)
        179          4         29  1.19084337E-02                    1_GWF-(1,26543) -4.93858065E-03                    1_GWF-(1,14868)
        180          4         30  1.41349785E-02                    1_GWF-(1,26420)  5.60923068E-03                    1_GWF-(1,14868)
        181          4         31  1.99542522E-02                    1_GWF-(1,26422) -4.71433817E-03                    1_GWF-(1,14868)
        182          4         32  1.99415156E-02                    1_GWF-(1,26350)  5.57377777E-03                    1_GWF-(1,14868)
        183          4         33  1.93955177E-02                    1_GWF-(1,26421) -3.76740437E-03                    1_GWF-(1,14868)
        184          4         34  1.87417634E-02                    1_GWF-(1,26350)  4.09934971E-03                    1_GWF-(1,14868)
        185          4         35  1.93725901E-02                    1_GWF-(1,26422)  2.10564650E-03                    1_GWF-(1,14869)
        186          4         36  1.11646482E-02                    1_GWF-(1,26350)  1.80009476E-03                    1_GWF-(1,14867)
        187          4         37 -1.73788082E-02                    1_GWF-(1,26350)  1.54217288E-03                    1_GWF-(1,14782)
        188          4         38 -1.56190171E-02                    1_GWF-(1,26422)  1.99958473E-03                    1_GWF-(1,14867)
        189          4         39 -1.47138235E-02                    1_GWF-(1,26544)  2.21069396E-03                    1_GWF-(1,14868)
        190          4         40 -1.56263354E-02                    1_GWF-(1,26486)  2.24743501E-03                    1_GWF-(1,14869)
        191          4         41 -1.24486114E-02                    1_GWF-(1,26350)  3.14180528E-03                    1_GWF-(1,14868)
        192          4         42 -9.72557160E-03                    1_GWF-(1,26422) -2.88202522E-03                    1_GWF-(1,14868)
        193          4         43 -9.16433469E-03                    1_GWF-(1,26544)  3.47277285E-03                    1_GWF-(1,14868)
        194          4         44 -7.20082398E-03                    1_GWF-(1,26486) -3.05012785E-03                    1_GWF-(1,14868)
        195          4         45 -6.31089368E-03                    1_GWF-(1,16130)  3.34175335E-03                    1_GWF-(1,14868)
        196          4         46  6.81947296E-03                    1_GWF-(1,16130) -3.17611274E-03                    1_GWF-(1,14868)
        197          4         47  8.78973620E-03                    1_GWF-(1,26672)  3.57688761E-03                    1_GWF-(1,14868)
        198          4         48 -6.26789029E-03                    1_GWF-(1,26623) -3.40357482E-03                    1_GWF-(1,14868)
        199          4         49  7.74891749E-03                    1_GWF-(1,16130)  2.44909257E-03                    1_GWF-(1,14868)
        200          4         50  7.99460173E-03                    1_GWF-(1,26326) -2.46787839E-03                    1_GWF-(1,14868)
        201          5          1 -1.44831835E-02                    1_GWF-(1,11933)  1.76038140E-03                    1_GWF-(1,14868)
        202          5          2 -7.14376622E-03                    1_GWF-(1,11934) -2.43898606E-03                    1_GWF-(1,14868)
        203          5          3 -5.43318913E-03                    1_GWF-(1,26673)  2.51924994E-03                    1_GWF-(1,14868)
        204          5          4 -5.96353629E-03                    1_GWF-(1,26672) -2.47487413E-03                    1_GWF-(1,14868)
        205          5          5  5.05066983E-03                    1_GWF-(1,26422)  2.48495906E-03                    1_GWF-(1,14868)
        206          5          6 -3.55455001E-03                    1_GWF-(1,20231) -2.32433877E-03                    1_GWF-(1,14868)
        207          5          7 -4.71726351E-03                    1_GWF-(1,26350)  2.67224573E-03                    1_GWF-(1,14868)
        208          5          8 -5.93793177E-03                    1_GWF-(1,26422) -2.37206904E-03                    1_GWF-(1,14868)
        209          5          9 -3.85909104E-03                    1_GWF-(1,26350)  2.46149383E-03                    1_GWF-(1,14868)
        210          5         10  5.10645364E-03                    1_GWF-(1,26350) -1.74450978E-03                    1_GWF-(1,14868)
        211          5         11  6.82327508E-03                    1_GWF-(1,26486)  1.72346039E-03                    1_GWF-(1,14868)
        212          5         12 -6.72184800E-03                    1_GWF-(1,26422)  9.74430595E-04                    1_GWF-(1,14869)
        213          5         13  8.02194716E-03                    1_GWF-(1,26422)  6.17386128E-04                    1_GWF-(1,14782)
        214          5         14  8.63295876E-03                    1_GWF-(1,26350)  5.50081401E-04                    1_GWF-(1,14867)
        215          5         15 -7.07979499E-03                    1_GWF-(1,26544)  8.04622814E-04                    1_GWF-(1,14869)
        216          5         16 -8.37051069E-03                    1_GWF-(1,26486)  1.34230174E-03                    1_GWF-(1,14868)
        217          5         17 -8.23668247E-03                    1_GWF-(1,26588)  6.76485584E-04                    1_GWF-(1,14869)
        218          5         18 -7.67272278E-03                    1_GWF-(1,26589)  3.92158305E-04                    1_GWF-(1,14869)
        219          5         19 -8.46389595E-03                    1_GWF-(1,26422)  1.35651935E-03                    1_GWF-(1,14868)
        220          5         20 -9.41736463E-03                    1_GWF-(1,26350) -1.71974302E-03                    1_GWF-(1,14868)
        221          5         21 -6.93365932E-03                    1_GWF-(1,26422)  2.45502754E-03                    1_GWF-(1,14868)
        222          5         22 -4.67180025E-03                    1_GWF-(1,26420) -2.50591391E-03                    1_GWF-(1,14868)
        223          5         23 -4.91741589E-03                    1_GWF-(1,25443)  2.60226549E-03                    1_GWF-(1,14868)
        224          5         24  5.58880006E-03                    1_GWF-(1,26486) -1.92132137E-03                    1_GWF-(1,14868)
        225          5         25  5.30178275E-03                    1_GWF-(1,26487)  1.43069497E-03                    1_GWF-(1,14868)
        226          5         26  6.26860434E-03                    1_GWF-(1,26486)  2.73228122E-04                    1_GWF-(1,14869)
        227          5         27 -7.15192250E-03                    1_GWF-(1,26649)  7.56642462E-04                    1_GWF-(1,14869)
        228          5         28 -6.82951778E-03                    1_GWF-(1,26622)  1.53631116E-03                    1_GWF-(1,14868)
        229          5         29 -4.75456321E-03                    1_GWF-(1,26649) -1.23528612E-03                    1_GWF-(1,14868)
        230          5         30 -4.34360583E-03                    1_GWF-(1,22718)  1.18795304E-03                    1_GWF-(1,14868)
        231          5         31 -3.63148675E-03                    1_GWF-(1,26420) -6.91794107E-04                    1_GWF-(1,14868)
        232          5         32  3.83723765E-03                    1_GWF-(1,26665)  5.84140692E-04                    1_GWF-(1,14868)
        233          5         33  4.03567045E-03                    1_GWF-(1,26647) -3.29435234E-04                    1_GWF-(1,14867)
        234          5         34  5.51110741E-03                    1_GWF-(1,26622)  5.72978727E-04                    1_GWF-(1,14867)
        235          5         35 -7.22918999E-03                    1_GWF-(1,26665)  4.12842190E-04                    1_GWF-(1,14782)
        236          5         36 -5.53511752E-03                    1_GWF-(1,26649)  3.72197597E-04                    1_GWF-(1,14869)
        237          5         37 -4.58589583E-03                    1_GWF-(1,26588)  4.78074696E-04                    1_GWF-(1,14868)
        238          5         38 -4.23634454E-03                    1_GWF-(1,26589) -4.03721202E-04                    1_GWF-(1,14867)
        239          5         39 -5.37468420E-03                    1_GWF-(1,26588)  6.45917795E-04                    1_GWF-(1,14867)
        240          5         40 -4.95268189E-03                    1_GWF-(1,26665) -6.09621055E-04                    1_GWF-(1,14867)
        241          5         41  7.01246689E-03                    1_GWF-(1,26665)  3.50987804E-04                    1_GWF-(1,14867)
        242          5         42  6.45868929E-03                    1_GWF-(1,26588)  2.78432222E-04                    1_GWF-(1,14868)
        243          5         43  5.80164472E-03                    1_GWF-(1,26589) -5.56638230E-04                    1_GWF-(1,14867)
        244          5         44  4.44496661E-03                    1_GWF-(1,26588)  8.07641070E-04                    1_GWF-(1,14867)
        245          5         45  3.27775834E-03                    1_GWF-(1,26665) -9.32496614E-04                    1_GWF-(1,14867)
        246          5         46  2.75002465E-03                    1_GWF-(1,26666)  1.07548043E-03                    1_GWF-(1,14867)
        247          5         47  3.21254782E-03                    1_GWF-(1,26218) -9.46748456E-04                    1_GWF-(1,14867)
        248          5         48  3.92152971E-03                    1_GWF-(1,26217)  9.35474539E-04                    1_GWF-(1,14867)
        249          5         49  3.14492660E-03                    1_GWF-(1,26218) -8.45616086E-04                    1_GWF-(1,14867)
        250          5         50 -2.63723184E-03                    1_GWF-(1,26218)  7.76204760E-04                    1_GWF-(1,14867)
        251          6          1 -7.34802098E-03                    1_GWF-(1,11932) -4.09785650E-04                    1_GWF-(1,14867)
        252          6          2 -3.68168190E-03                    1_GWF-(1,11931)  6.27789099E-04                    1_GWF-(1,14867)
        253          6          3 -3.43220264E-03                    1_GWF-(1,26217) -6.17447547E-04                    1_GWF-(1,14867)
        254          6          4 -3.67939146E-03                    1_GWF-(1,26218)  6.60138762E-04                    1_GWF-(1,14867)
        255          6          5 -2.91982491E-03                    1_GWF-(1,26422) -5.20073321E-04                    1_GWF-(1,14867)
        256          6          6 -2.50624150E-03                    1_GWF-(1,26218)  4.90150023E-04                    1_GWF-(1,14867)
        257          6          7 -1.93647966E-03                    1_GWF-(1,26217) -2.93018940E-04                    1_GWF-(1,14867)
        258          6          8 -2.37460611E-03                    1_GWF-(1,26665)  1.66198998E-04                    1_GWF-(1,14867)
        259          6          9 -2.64127666E-03                    1_GWF-(1,26666)  9.90464873E-05                    1_GWF-(1,14867)
        260          6         10 -2.91227546E-03                    1_GWF-(1,26665) -2.02058964E-04                    1_GWF-(1,14867)
        261          6         11  2.90100040E-03                    1_GWF-(1,26665)  2.16664279E-04                    1_GWF-(1,14867)
        262          6         12  2.50432631E-03                    1_GWF-(1,26588)  1.01067781E-04                    1_GWF-(1,14782)
        263          6         13  2.03886622E-03                    1_GWF-(1,26589)  1.30503905E-04                    1_GWF-(1,14868)
        264          6         14  1.95889067E-03                    1_GWF-(1,26588)  1.16469565E-04                    1_GWF-(1,14869)
        265          6         15  1.90104081E-03                    1_GWF-(1,26649)  1.55462473E-04                    1_GWF-(1,14782)
        266          6         16  2.14851467E-03                    1_GWF-(1,26588)  1.72443780E-04                    1_GWF-(1,14867)
        267          6         17  1.90537152E-03                    1_GWF-(1,26543)  6.16839273E-05                    1_GWF-(1,14782)
        268          6         18  1.28091288E-03                    1_GWF-(1,26588)  8.14626203E-05                    1_GWF-(1,14868)
        269          6         19 -9.85623970E-04                    1_GWF-(1,26665)  1.05699528E-04                    1_GWF-(1,14869)
        270          6         20  1.02966119E-03                    1_GWF-(1,24664)  1.86048172E-04                    1_GWF-(1,14868)
        271          6         21  1.01323996E-03                    1_GWF-(1,24688)  2.41121176E-04                    1_GWF-(1,14867)
        272          6         22 -1.01391574E-03                    1_GWF-(1,26648)  2.49068747E-04                    1_GWF-(1,14868)
        273          6         23 -1.42303160E-03                    1_GWF-(1,26649)  1.80550777E-04                    1_GWF-(1,14867)
        274          6         24 -1.75465199E-03                    1_GWF-(1,26622)  7.91230903E-05                    1_GWF-(1,14868)
        275          6         25 -1.49791550E-03                    1_GWF-(1,26623)  1.25889769E-04                    1_GWF-(1,14782)
        276          6         26 -9.89236690E-04                    1_GWF-(1,26622)  2.37296450E-04                    1_GWF-(1,14867)
        277          6         27 -8.88771290E-04                    1_GWF-(1,26421)  2.89501002E-04                    1_GWF-(1,14868)
        278          6         28 -9.10881277E-04                    1_GWF-(1,26420) -2.87521986E-04                    1_GWF-(1,14868)
        279          6         29  8.67312957E-04                    1_GWF-(1,26420)  2.98182420E-04                    1_GWF-(1,14868)
        280          6         30  1.08436523E-03                    1_GWF-(1,26422) -1.71562281E-04                    1_GWF-(1,14868)
        281          6         31  1.44000827E-03                    1_GWF-(1,26486)  1.01420812E-04                    1_GWF-(1,14867)
        282          6         32  1.66118320E-03                    1_GWF-(1,26487)  1.81730447E-04                    1_GWF-(1,14868)
        283          6         33  1.45896308E-03                    1_GWF-(1,26486)  2.10206962E-04                    1_GWF-(1,14869)
        284          6         34  9.76565577E-04                    1_GWF-(1,26487)  2.75576773E-04                    1_GWF-(1,14868)
        285          6         35  9.63561404E-04                    1_GWF-(1,26486) -1.84159058E-04                    1_GWF-(1,14868)
        286          6         36  7.71081739E-04                    1_GWF-(1,26350)  1.89923977E-04                    1_GWF-(1,14868)
        287          6         37 -1.11968496E-03                    1_GWF-(1,26350)  1.20644816E-04                    1_GWF-(1,14782)
        288          6         38 -1.12063934E-03                    1_GWF-(1,26422)  1.76342577E-04                    1_GWF-(1,14867)
        289          6         39 -8.22139293E-04                    1_GWF-(1,26350)  1.32802799E-04                    1_GWF-(1,14782)
        290          6         40 -7.32055070E-04                    1_GWF-(1,26422)  1.33636817E-04                    1_GWF-(1,14867)
        291          6         41 -6.95687655E-04                    1_GWF-(1,26350)  1.61875214E-04                    1_GWF-(1,14868)
        292          6         42 -5.43511491E-04                    1_GWF-(1,26422) -1.73351853E-04                    1_GWF-(1,14868)
        293          6         43  4.81935570E-04                    1_GWF-(1,26422)  2.43256925E-04                    1_GWF-(1,14868)
        294          6         44  5.68431422E-04                    1_GWF-(1,26350) -2.18870761E-04                    1_GWF-(1,14868)
        295          6         45  3.11046853E-04                    1_GWF-(1,26422)  2.53915844E-04                    1_GWF-(1,14868)
        296          6         46  2.94991999E-04                    1_GWF-(1,26544) -2.43186159E-04                    1_GWF-(1,14868)
        297          6         47 -3.56745770E-04                    1_GWF-(1,25786)  2.27794374E-04                    1_GWF-(1,14868)
        298          6         48 -3.62082147E-04                    1_GWF-(1,25762) -1.95624825E-04                    1_GWF-(1,14868)
        299          6         49 -3.15915771E-04                    1_GWF-(1,25727)  1.56940460E-04                    1_GWF-(1,14868)
        300          6         50  3.15586622E-04                    1_GWF-(1,26586) -1.46378910E-04                    1_GWF-(1,14868)
        301          7          1 -2.37053388E-04                    1_GWF-(1,26217)  1.57326212E-04                    1_GWF-(1,14868)
        302          7          2 -2.71303425E-04                    1_GWF-(1,26218) -1.61651536E-04                    1_GWF-(1,14868)
        303          7          3  2.52529875E-04                    1_GWF-(1,25793)  1.71068858E-04                    1_GWF-(1,14868)
        304          7          4  3.05728847E-04                    1_GWF-(1,26217) -1.88210598E-04                    1_GWF-(1,14868)
        305          7          5  2.90746532E-04                    1_GWF-(1,26422)  2.02607312E-04                    1_GWF-(1,14868)
        306          7          6 -2.83756623E-04                    1_GWF-(1,26486) -1.86407521E-04                    1_GWF-(1,14868)
        307          7          7 -4.12522459E-04                    1_GWF-(1,26350)  2.03045220E-04                    1_GWF-(1,14868)
        308          7          8 -4.44185613E-04                    1_GWF-(1,26422) -1.52818818E-04                    1_GWF-(1,14868)
        309          7          9  3.07518622E-04                    1_GWF-(1,26588)  1.33580494E-04                    1_GWF-(1,14868)
        310          7         10  3.33803790E-04                    1_GWF-(1,26350)  8.34411003E-05                    1_GWF-(1,14867)
        311          7         11 -3.74637231E-04                    1_GWF-(1,26350)  8.18579143E-05                    1_GWF-(1,14782)
        312          7         12  4.00536763E-04                    1_GWF-(1,26350)  1.00176440E-04                    1_GWF-(1,14867)
        313          7         13  5.86078562E-04                    1_GWF-(1,26422)  5.49431490E-05                    1_GWF-(1,14782)
        314          7         14 -6.18295020E-04                    1_GWF-(1,26588)  8.55717864E-05                    1_GWF-(1,14868)
        315          7         15 -6.75404838E-04                    1_GWF-(1,26543)  6.10936716E-05                    1_GWF-(1,14867)
        316          7         16 -5.00720442E-04                    1_GWF-(1,26544)  7.16853280E-05                    1_GWF-(1,14782)
        317          7         17 -5.54926193E-04                    1_GWF-(1,26486)  8.09194246E-05                    1_GWF-(1,14867)
        318          7         18 -5.00604001E-04                    1_GWF-(1,26487)  8.22661918E-05                    1_GWF-(1,14869)
        319          7         19 -5.74633532E-04                    1_GWF-(1,26486)  1.13919377E-04                    1_GWF-(1,14868)
        320          7         20 -5.43568932E-04                    1_GWF-(1,26487)  6.09595460E-05                    1_GWF-(1,14869)
        321          7         21 -5.18452470E-04                    1_GWF-(1,26420) -5.33071121E-05                    1_GWF-(1,14867)
        322          7         22 -4.42930461E-04                    1_GWF-(1,26422)  7.25265883E-05                    1_GWF-(1,14868)
        323          7         23  4.39744730E-04                    1_GWF-(1,26665) -9.75539453E-05                    1_GWF-(1,14868)
        324          7         24  4.07032252E-04                    1_GWF-(1,26420)  1.22317640E-04                    1_GWF-(1,14868)
        325          7         25  4.08983399E-04                    1_GWF-(1,26486) -9.64961480E-05                    1_GWF-(1,14868)
        326          7         26  3.13181057E-04                    1_GWF-(1,26487)  7.13477340E-05                    1_GWF-(1,14868)
        327          7         27  3.91467842E-04                    1_GWF-(1,26420)  3.38147331E-05                    1_GWF-(1,14867)
        328          7         28  4.63560738E-04                    1_GWF-(1,26487) -5.61499638E-05                    1_GWF-(1,14868)
        329          7         29  4.00422308E-04                    1_GWF-(1,26420)  1.04289375E-04                    1_GWF-(1,14868)
        330          7         30 -3.45070338E-04                    1_GWF-(1,26420) -9.52567984E-05                    1_GWF-(1,14868)
        331          7         31 -2.50991141E-04                    1_GWF-(1,24664)  9.13878947E-05                    1_GWF-(1,14868)
        332          7         32 -2.31663150E-04                    1_GWF-(1,24661) -6.67357426E-05                    1_GWF-(1,14868)
        333          7         33 -2.40532113E-04                    1_GWF-(1,26218)  6.04983201E-05                    1_GWF-(1,14868)
        334          7         34 -2.13275060E-04                    1_GWF-(1,26217)  4.60649157E-05                    1_GWF-(1,14867)
        335          7         35 -2.43438335E-04                    1_GWF-(1,26175)  4.52120268E-05                    1_GWF-(1,14868)
        336          7         36  2.59876556E-04                    1_GWF-(1,26218)  2.60310521E-05                    1_GWF-(1,14869)
        337          7         37 -1.64150905E-04                    1_GWF-(1,26578)  2.81871595E-05                    1_GWF-(1,14868)
        338          7         38 -2.30093429E-04                    1_GWF-(1,26586)  2.06914542E-05                    1_GWF-(1,14782)
        339          7         39 -2.22669604E-04                    1_GWF-(1,26587)  4.07172396E-05                    1_GWF-(1,14867)
        340          7         40  2.26366084E-04                    1_GWF-(1,26218) -5.12611876E-05                    1_GWF-(1,14867)
        341          7         41 -2.06624320E-04                    1_GWF-(1,26672)  6.94674601E-05                    1_GWF-(1,14867)
        342          7         42  2.66334556E-04                    1_GWF-(1,26665) -5.53499592E-05                    1_GWF-(1,14867)
        343          7         43 -3.59178342E-04                    1_GWF-(1,26665)  3.89897116E-05                    1_GWF-(1,14867)
        344          7         44  3.39332270E-04                    1_GWF-(1,26665)  8.76104318E-06                    1_GWF-(1,14868)
        345          7         45  3.29715764E-04                    1_GWF-(1,26666) -2.69087010E-05                    1_GWF-(1,14867)
        346          7         46  3.24359254E-04                    1_GWF-(1,26665)  4.99796305E-05                    1_GWF-(1,14867)
        347          7         47  2.36415137E-04                    1_GWF-(1,26218) -4.79123129E-05                    1_GWF-(1,14867)
        348          7         48  2.67545754E-04                    1_GWF-(1,26217)  5.05143717E-05                    1_GWF-(1,14867)
        349          7         49  2.04136239E-04                    1_GWF-(1,26218) -3.63410471E-05                    1_GWF-(1,14867)
        350          7         50  2.78751055E-04                    1_GWF-(1,11932)  5.25683354E-05                    1_GWF-(1,14867)
        351          8          1 -2.63817268E-04                    1_GWF-(1,11932) -3.61578381E-05                    1_GWF-(1,14867)
        352          8          2 -1.71068261E-04                    1_GWF-(1,26218)  4.26607272E-05                    1_GWF-(1,14867)
        353          8          3 -2.20811743E-04                    1_GWF-(1,26217) -3.67502468E-05                    1_GWF-(1,14867)
        354          8          4 -2.06283205E-04                    1_GWF-(1,26218)  3.87404704E-05                    1_GWF-(1,14867)
        355          8          5 -1.76019008E-04                    1_GWF-(1,26665) -2.20222418E-05                    1_GWF-(1,14867)
        356          8          6 -2.12713842E-04                    1_GWF-(1,26666)  6.37929549E-06                    1_GWF-(1,14867)
        357          8          7 -2.56765167E-04                    1_GWF-(1,26665)  1.96331705E-05                    1_GWF-(1,14867)
        358          8          8 -1.84698562E-04                    1_GWF-(1,26666) -2.91618286E-05                    1_GWF-(1,14867)
        359          8          9 -1.78774290E-04                    1_GWF-(1,26588)  3.32654757E-05                    1_GWF-(1,14867)
        360          8         10  1.35806523E-04                    1_GWF-(1,26487) -2.05800323E-05                    1_GWF-(1,14867)
        361          8         11  1.27285706E-04                    1_GWF-(1,26622)  6.82371040E-06                    1_GWF-(1,14867)
        362          8         12  2.01189260E-04                    1_GWF-(1,26623)  9.71548626E-06                    1_GWF-(1,14867)
        363          8         13  1.77680314E-04                    1_GWF-(1,26622) -1.34358554E-05                    1_GWF-(1,14867)
        364          8         14  1.32550658E-04                    1_GWF-(1,26649)  1.49332900E-05                    1_GWF-(1,14867)
        365          8         15  1.22040372E-04                    1_GWF-(1,26622)  8.67863907E-06                    1_GWF-(1,14782)
        366          8         16 -8.74770627E-05                    1_GWF-(1,26218)  8.86081306E-06                    1_GWF-(1,14868)
        367          8         17  7.83050781E-05                    1_GWF-(1,24679)  7.16602282E-06                    1_GWF-(1,14869)
        368          8         18  7.16588536E-05                    1_GWF-(1,24671)  9.78914473E-06                    1_GWF-(1,14868)
        369          8         19  6.79224493E-05                    1_GWF-(1,24683)  9.57516322E-06                    1_GWF-(1,14867)
        370          8         20 -9.20024151E-05                    1_GWF-(1,26486)  1.04921133E-05                    1_GWF-(1,14868)
        371          8         21 -1.17535654E-04                    1_GWF-(1,26487)  6.04238936E-06                    1_GWF-(1,14867)
        372          8         22 -1.27070898E-04                    1_GWF-(1,26486)  5.59220567E-06                    1_GWF-(1,14867)
        373          8         23 -9.55530464E-05                    1_GWF-(1,26487)  1.15378479E-05                    1_GWF-(1,14868)
        374          8         24 -7.35635319E-05                    1_GWF-(1,26420)  1.46846066E-05                    1_GWF-(1,14867)
        375          8         25 -8.56247498E-05                    1_GWF-(1,26218)  1.63357626E-05                    1_GWF-(1,14868)
        376          8         26 -7.03666986E-05                    1_GWF-(1,26217) -1.74721628E-05                    1_GWF-(1,14868)
        377          8         27 -6.42829473E-05                    1_GWF-(1,26421)  2.12810346E-05                    1_GWF-(1,14868)
        378          8         28  7.63642554E-05                    1_GWF-(1,26588) -2.02450709E-05                    1_GWF-(1,14868)
        379          8         29  6.20478442E-05                    1_GWF-(1,26589)  1.89365224E-05                    1_GWF-(1,14868)
        380          8         30 -7.36867194E-05                    1_GWF-(1,26589) -1.00851397E-05                    1_GWF-(1,14868)
        381          8         31 -1.07283835E-04                    1_GWF-(1,26588)  8.47181776E-06                    1_GWF-(1,14867)
        382          8         32  8.29082298E-05                    1_GWF-(1,26420)  1.22168781E-05                    1_GWF-(1,14868)
        383          8         33  7.56749239E-05                    1_GWF-(1,26421)  1.34574959E-05                    1_GWF-(1,14869)
        384          8         34  6.16291976E-05                    1_GWF-(1,26350)  1.74402148E-05                    1_GWF-(1,14868)
        385          8         35  6.32206154E-05                    1_GWF-(1,26422) -1.19856842E-05                    1_GWF-(1,14868)
        386          8         36 -6.35530642E-05                    1_GWF-(1,26422)  1.20257018E-05                    1_GWF-(1,14868)
        387          8         37 -8.59909038E-05                    1_GWF-(1,26350)  7.71028748E-06                    1_GWF-(1,14782)
        388          8         38 -7.99740065E-05                    1_GWF-(1,26422)  1.10777235E-05                    1_GWF-(1,14867)
        389          8         39 -5.26383002E-05                    1_GWF-(1,26350)  8.43361903E-06                    1_GWF-(1,14782)
        390          8         40 -4.47543622E-05                    1_GWF-(1,26422)  8.69182874E-06                    1_GWF-(1,14867)
        391          8         41 -4.04947281E-05                    1_GWF-(1,26350)  1.12896737E-05                    1_GWF-(1,14868)
        392          8         42 -2.90335166E-05                    1_GWF-(1,26588) -1.24483571E-05                    1_GWF-(1,14868)
        393          8         43  4.41204730E-05                    1_GWF-(1,26422)  1.68402164E-05                    1_GWF-(1,14868)
        394          8         44  4.29224944E-05                    1_GWF-(1,26350) -1.44237491E-05                    1_GWF-(1,14868)
        395          8         45  2.31313187E-05                    1_GWF-(1,26588)  1.30576113E-05                    1_GWF-(1,14868)
        396          8         46  3.60505513E-05                    1_GWF-(1,26486) -5.47983523E-06                    1_GWF-(1,14868)
        397          8         47  4.19453580E-05                    1_GWF-(1,26649) -4.49334410E-06                    1_GWF-(1,14868)
        398          8         48  4.09387786E-05                    1_GWF-(1,26622)  1.15737209E-05                    1_GWF-(1,14868)
        399          8         49 -3.82179968E-05                    1_GWF-(1,26486) -1.36312831E-05                    1_GWF-(1,14868)
        400          8         50 -2.05118397E-05                    1_GWF-(1,26544)  1.28241385E-05                    1_GWF-(1,14868)
        401          9          1  2.32118613E-05                    1_GWF-(1,26544) -2.04799515E-05                    1_GWF-(1,14868)
        402          9          2  3.87784461E-05                    1_GWF-(1,26486)  1.37694927E-05                    1_GWF-(1,14868)
        403          9          3 -3.13170560E-05                    1_GWF-(1,26622) -6.06383068E-06                    1_GWF-(1,14868)
        404          9          4 -3.64383635E-05                    1_GWF-(1,26649) -3.62869927E-06                    1_GWF-(1,14867)
        405          9          5 -3.48296370E-05                    1_GWF-(1,26486)  1.00331509E-05                    1_GWF-(1,14868)
        406          9          6 -2.66298157E-05                    1_GWF-(1,26588) -1.05797991E-05                    1_GWF-(1,14868)
        407          9          7 -2.79572783E-05                    1_GWF-(1,26350)  1.26100853E-05                    1_GWF-(1,14868)
        408          9          8 -3.53418607E-05                    1_GWF-(1,26422) -1.05732308E-05                    1_GWF-(1,14868)
        409          9          9 -2.41177113E-05                    1_GWF-(1,26350)  1.06042357E-05                    1_GWF-(1,14868)
        410          9         10  2.35169709E-05                    1_GWF-(1,26350)  6.65484433E-06                    1_GWF-(1,14869)
        411          9         11  2.55929934E-05                    1_GWF-(1,26422)  5.49915604E-06                    1_GWF-(1,14782)
        412          9         12  2.81386516E-05                    1_GWF-(1,26350)  7.09902780E-06                    1_GWF-(1,14867)
        413          9         13  4.72500517E-05                    1_GWF-(1,26422)  5.16953362E-06                    1_GWF-(1,14782)
        414          9         14  5.47007847E-05                    1_GWF-(1,26350)  5.99608367E-06                    1_GWF-(1,14868)
        415          9         15  4.21827836E-05                    1_GWF-(1,26422) -6.25501268E-06                    1_GWF-(1,14868)
        416          9         16 -3.62912213E-05                    1_GWF-(1,26422)  8.21963707E-06                    1_GWF-(1,14868)
        417          9         17 -3.78920873E-05                    1_GWF-(1,26420)  4.23940387E-06                    1_GWF-(1,14867)
        418          9         18 -4.70887652E-05                    1_GWF-(1,26487)  4.03387571E-06                    1_GWF-(1,14782)
        419          9         19 -4.78661692E-05                    1_GWF-(1,26486)  7.26076758E-06                    1_GWF-(1,14868)
        420          9         20 -4.30361764E-05                    1_GWF-(1,26350) -8.32329087E-06                    1_GWF-(1,14868)
        421          9         21 -3.77102870E-05                    1_GWF-(1,26486)  9.85187805E-06                    1_GWF-(1,14868)
        422          9         22 -2.35331740E-05                    1_GWF-(1,26420) -7.90460065E-06                    1_GWF-(1,14868)
        423          9         23  2.54150155E-05                    1_GWF-(1,26420)  6.34987507E-06                    1_GWF-(1,14868)
        424          9         24 -3.31488684E-05                    1_GWF-(1,26588)  4.28651318E-06                    1_GWF-(1,14867)
        425          9         25  3.48536193E-05                    1_GWF-(1,26588)  1.68140191E-06                    1_GWF-(1,14869)
        426          9         26 -3.15607311E-05                    1_GWF-(1,26588)  5.28445078E-06                    1_GWF-(1,14868)
        427          9         27  2.87817521E-05                    1_GWF-(1,26588) -5.83701184E-06                    1_GWF-(1,14868)
        428          9         28 -2.12565392E-05                    1_GWF-(1,26588)  6.16867149E-06                    1_GWF-(1,14868)
        429          9         29 -1.78953842E-05                    1_GWF-(1,26665)  5.03529372E-06                    1_GWF-(1,14867)
        430          9         30  3.23563414E-05                    1_GWF-(1,26665)  2.66459042E-06                    1_GWF-(1,14782)
        431          9         31  3.53273835E-05                    1_GWF-(1,26666)  1.24140576E-06                    1_GWF-(1,14868)
        432          9         32  4.11284595E-05                    1_GWF-(1,26665) -2.89233612E-06                    1_GWF-(1,14868)
        433          9         33  2.92314931E-05                    1_GWF-(1,26666)  4.52834394E-06                    1_GWF-(1,14868)
        434          9         34 -2.04666718E-05                    1_GWF-(1,26666)  4.32420981E-06                    1_GWF-(1,14867)
        435          9         35 -2.76677951E-05                    1_GWF-(1,26665)  3.96890169E-06                    1_GWF-(1,14868)
        436          9         36 -1.89672178E-05                    1_GWF-(1,26663)  2.53948807E-06                    1_GWF-(1,14867)
        437          9         37 -1.52317991E-05                    1_GWF-(1,26623)  2.53234281E-06                    1_GWF-(1,14868)
        438          9         38 -2.20566028E-05                    1_GWF-(1,26586)  1.27861838E-06                    1_GWF-(1,14869)
        439          9         39 -2.96648597E-05                    1_GWF-(1,26623)  1.48323215E-06                    1_GWF-(1,14867)
        440          9         40 -2.80673651E-05                    1_GWF-(1,26622)  1.36152212E-06                    1_GWF-(1,14782)
        441          9         41 -2.36639834E-05                    1_GWF-(1,26487)  1.43590091E-06                    1_GWF-(1,14869)
        442          9         42  2.24892288E-05                    1_GWF-(1,26588)  1.83858008E-06                    1_GWF-(1,14868)
        443          9         43 -1.84643682E-05                    1_GWF-(1,26217)  1.66296987E-06                    1_GWF-(1,14782)
        444          9         44  1.61267692E-05                    1_GWF-(1,26544)  2.88448866E-06                    1_GWF-(1,14867)
        445          9         45  1.43007934E-05                    1_GWF-(1,26218) -2.92096181E-06                    1_GWF-(1,14867)
        446          9         46  1.56464540E-05                    1_GWF-(1,26422)  3.97677698E-06                    1_GWF-(1,14867)
        447          9         47  1.78586380E-05                    1_GWF-(1,26218) -3.48574519E-06                    1_GWF-(1,14867)
        448          9         48  1.98010247E-05                    1_GWF-(1,26217)  3.81825025E-06                    1_GWF-(1,14867)
        449          9         49  1.58372177E-05                    1_GWF-(1,26218) -2.95329661E-06                    1_GWF-(1,14867)
        450          9         50  1.22878019E-05                    1_GWF-(1,11932)  3.71596630E-06                    1_GWF-(1,14867)
        451         10          1 -1.25483729E-05                    1_GWF-(1,11932) -3.17105348E-06                    1_GWF-(1,14867)
        452         10          2 -1.40146095E-05                    1_GWF-(1,26218)  3.49744915E-06                    1_GWF-(1,14867)
        453         10          3 -1.65956023E-05                    1_GWF-(1,26217) -2.42844646E-06                    1_GWF-(1,14867)
        454         10          4 -1.35783886E-05                    1_GWF-(1,26350)  1.74961706E-06                    1_GWF-(1,14867)
        455         10          5 -1.94015935E-05                    1_GWF-(1,26487)  5.80400074E-07                    1_GWF-(1,14867)
        456         10          6 -1.91628596E-05                    1_GWF-(1,26486) -1.72739502E-06                    1_GWF-(1,14867)
        457         10          7 -1.57268958E-05                    1_GWF-(1,26487)  2.65123953E-06                    1_GWF-(1,14867)
        458         10          8  1.08309271E-05                    1_GWF-(1,26218) -2.10164119E-06                    1_GWF-(1,14867)
        459         10          9  1.18600327E-05                    1_GWF-(1,26217)  1.90767509E-06                    1_GWF-(1,14867)
        460         10         10  9.59036153E-06                    1_GWF-(1,26218) -1.04354522E-06                    1_GWF-(1,14867)
        461         10         11  6.33042276E-06                    1_GWF-(1,26543)  5.84129592E-07                    1_GWF-(1,14868)
        462         10         12  1.21303441E-05                    1_GWF-(1,26588)  4.90503882E-07                    1_GWF-(1,14869)
        463         10         13  1.28984183E-05                    1_GWF-(1,26589)  5.67982869E-07                    1_GWF-(1,14782)
        464         10         14  1.47227630E-05                    1_GWF-(1,26588)  7.54439609E-07                    1_GWF-(1,14867)
        465         10         15  1.02390399E-05                    1_GWF-(1,26543)  3.82826477E-07                    1_GWF-(1,14782)
        466         10         16  8.30691184E-06                    1_GWF-(1,26588)  6.71917525E-07                    1_GWF-(1,14868)
        467         10         17  6.98239495E-06                    1_GWF-(1,26543)  6.07807592E-07                    1_GWF-(1,14869)
        468         10         18 -6.11556338E-06                    1_GWF-(1,26648)  6.57080892E-07                    1_GWF-(1,14868)
        469         10         19 -7.41070107E-06                    1_GWF-(1,26665)  4.94762866E-07                    1_GWF-(1,14867)
        470         10         20 -6.40872001E-06                    1_GWF-(1,26622)  2.65143288E-07                    1_GWF-(1,14869)
        471         10         21 -7.14498660E-06                    1_GWF-(1,26623)  7.63715597E-07                    1_GWF-(1,14868)
        472         10         22 -5.39754366E-06                    1_GWF-(1,26622)  1.01367530E-06                    1_GWF-(1,14867)
        473         10         23 -4.01726621E-06                    1_GWF-(1,26487)  1.14717144E-06                    1_GWF-(1,14868)
        474         10         24 -5.13571872E-06                    1_GWF-(1,26420)  1.11330441E-06                    1_GWF-(1,14867)
        475         10         25 -5.26546358E-06                    1_GWF-(1,26218)  1.14343780E-06                    1_GWF-(1,14868)
        476         10         26 -5.70269446E-06                    1_GWF-(1,26350)  7.82477701E-07                    1_GWF-(1,14869)
        477         10         27 -5.79723719E-06                    1_GWF-(1,26666)  4.79892884E-07                    1_GWF-(1,14868)
        478         10         28 -6.49074315E-06                    1_GWF-(1,26665)  5.91940946E-07                    1_GWF-(1,14782)
        479         10         29  4.39617734E-06                    1_GWF-(1,26674)  9.64729696E-07                    1_GWF-(1,14867)
        480         10         30  4.64032174E-06                    1_GWF-(1,26666)  1.21800749E-06                    1_GWF-(1,14868)
        481         10         31  4.73213735E-06                    1_GWF-(1,26486) -1.21698055E-06                    1_GWF-(1,14868)
        482         10         32  4.92666136E-06                    1_GWF-(1,26350)  1.53386212E-06                    1_GWF-(1,14868)
        483         10         33  5.06761294E-06                    1_GWF-(1,26422)  1.13025799E-06                    1_GWF-(1,14869)
        484         10         34  4.36039044E-06                    1_GWF-(1,26350)  1.34679684E-06                    1_GWF-(1,14868)
        485         10         35  4.38057733E-06                    1_GWF-(1,26422) -8.90043132E-07                    1_GWF-(1,14868)
        486         10         36 -4.95551187E-06                    1_GWF-(1,26422)  7.76504699E-07                    1_GWF-(1,14868)
        487         10         37 -6.18433555E-06                    1_GWF-(1,26350)  4.93356592E-07                    1_GWF-(1,14782)
        488         10         38 -4.95768262E-06                    1_GWF-(1,26422)  4.80536015E-07                    1_GWF-(1,14867)
        489         10         39 -5.67088189E-06                    1_GWF-(1,26486)  6.48161209E-07                    1_GWF-(1,14868)
        490         10         40 -5.42076393E-06                    1_GWF-(1,26487)  3.97215273E-07                    1_GWF-(1,14869)
        491         10         41 -3.62655821E-06                    1_GWF-(1,26486)  5.80538887E-07                    1_GWF-(1,14867)
        492         10         42  2.92176198E-06                    1_GWF-(1,26486)  4.96816647E-07                    1_GWF-(1,14782)
        493         10         43  3.38418384E-06                    1_GWF-(1,26350)  5.28061370E-07                    1_GWF-(1,14867)
        494         10         44  3.76063649E-06                    1_GWF-(1,26422)  7.12951496E-07                    1_GWF-(1,14868)
        495         10         45 -2.85347853E-06                    1_GWF-(1,26622) -4.98787235E-07                    1_GWF-(1,14868)
        496         10         46  2.77810750E-06                    1_GWF-(1,26622)  2.82978591E-07                    1_GWF-(1,14867)
        497         10         47  3.13885916E-06                    1_GWF-(1,26623) -3.24673128E-07                    1_GWF-(1,14867)
        498         10         48  2.98108997E-06                    1_GWF-(1,26622) -5.58212035E-07                    1_GWF-(1,14868)
        499         10         49  2.20734430E-06                    1_GWF-(1,26649)  7.08678632E-07                    1_GWF-(1,14868)
        500         10         50  1.86873088E-06                    1_GWF-(1,26622) -7.01698358E-07                    1_GWF-(1,14868)
        501         11          1 -1.99064402E-06                    1_GWF-(1,26622)  1.25240142E-06                    1_GWF-(1,14868)
        502         11          2 -2.68102997E-06                    1_GWF-(1,26649) -3.55708530E-07                    1_GWF-(1,14868)
        503         11          3 -2.77976515E-06                    1_GWF-(1,26648) -3.91000800E-07                    1_GWF-(1,14868)
        504         11          4 -3.26189826E-06                    1_GWF-(1,26649)  7.92381232E-07                    1_GWF-(1,14868)
        505         11          5 -2.31560718E-06                    1_GWF-(1,26622) -9.33211659E-07                    1_GWF-(1,14868)
        506         11          6  2.29005123E-06                    1_GWF-(1,26622)  9.85034004E-07                    1_GWF-(1,14868)
        507         11          7  2.32290332E-06                    1_GWF-(1,26623)  3.30697841E-07                    1_GWF-(1,14869)
        508         11          8  2.70585845E-06                    1_GWF-(1,26543) -2.83589594E-07                    1_GWF-(1,14868)
        509         11          9  4.00698337E-06                    1_GWF-(1,26588)  9.10616015E-07                    1_GWF-(1,14868)
        510         11         10  2.67748098E-06                    1_GWF-(1,26589) -7.73983056E-07                    1_GWF-(1,14868)
        511         11         11  2.07193329E-06                    1_GWF-(1,26588)  6.79570175E-07                    1_GWF-(1,14868)
        512         11         12  1.86282430E-06                    1_GWF-(1,26420)  3.16261636E-07                    1_GWF-(1,14869)
        513         11         13  2.82918228E-06                    1_GWF-(1,26422)  2.98555212E-07                    1_GWF-(1,14782)
        514         11         14  3.24255512E-06                    1_GWF-(1,26350)  3.40310702E-07                    1_GWF-(1,14868)
        515         11         15 -3.19802451E-06                    1_GWF-(1,26486)  3.11865609E-07                    1_GWF-(1,14869)
        516         11         16  2.68530340E-06                    1_GWF-(1,26486)  3.44142098E-07                    1_GWF-(1,14868)
        517         11         17 -2.75513855E-06                    1_GWF-(1,26486)  5.18727145E-07                    1_GWF-(1,14867)
        518         11         18 -2.59244178E-06                    1_GWF-(1,26350)  5.06603813E-07                    1_GWF-(1,14782)
        519         11         19 -3.73775300E-06                    1_GWF-(1,26422)  5.60272443E-07                    1_GWF-(1,14867)
        520         11         20 -4.02878695E-06                    1_GWF-(1,26350) -3.94437019E-07                    1_GWF-(1,14868)
        521         11         21 -2.93380437E-06                    1_GWF-(1,26422)  5.66209946E-07                    1_GWF-(1,14868)
        522         11         22 -1.71185832E-06                    1_GWF-(1,26420) -5.53701896E-07                    1_GWF-(1,14868)
        523         11         23  1.91539872E-06                    1_GWF-(1,26665)  5.98923132E-07                    1_GWF-(1,14868)
        524         11         24  2.04721210E-06                    1_GWF-(1,26421) -4.19769229E-07                    1_GWF-(1,14868)
        525         11         25  1.75418398E-06                    1_GWF-(1,26420)  3.15981795E-07                    1_GWF-(1,14782)
        526         11         26 -2.15655155E-06                    1_GWF-(1,26665)  2.29579195E-07                    1_GWF-(1,14867)
        527         11         27 -2.15223671E-06                    1_GWF-(1,26666) -2.50231125E-07                    1_GWF-(1,14868)
        528         11         28 -2.02361523E-06                    1_GWF-(1,26665)  4.91596084E-07                    1_GWF-(1,14868)
        529         11         29  1.63422026E-06                    1_GWF-(1,26486) -4.81679555E-07                    1_GWF-(1,14868)
        530         11         30  1.38989359E-06                    1_GWF-(1,26649)  4.74633808E-07                    1_GWF-(1,14868)
        531         11         31 -1.63507253E-06                    1_GWF-(1,26487)  3.31875154E-07                    1_GWF-(1,14867)
        532         11         32 -1.84178813E-06                    1_GWF-(1,26486)  1.69544654E-07                    1_GWF-(1,14782)
        533         11         33 -2.15104223E-06                    1_GWF-(1,26487)  1.10842662E-07                    1_GWF-(1,14868)
        534         11         34 -2.03829156E-06                    1_GWF-(1,26486)  2.34557752E-07                    1_GWF-(1,14869)
        535         11         35 -1.73940554E-06                    1_GWF-(1,26487)  2.93295595E-07                    1_GWF-(1,14868)
        536         11         36 -1.19455434E-06                    1_GWF-(1,26622)  2.50618821E-07                    1_GWF-(1,14867)
        537         11         37 -1.63418153E-06                    1_GWF-(1,26588)  1.84202421E-07                    1_GWF-(1,14868)
        538         11         38 -1.89653209E-06                    1_GWF-(1,26589)  7.55890865E-08                    1_GWF-(1,14869)
        539         11         39 -2.48177196E-06                    1_GWF-(1,26588)  1.05396284E-07                    1_GWF-(1,14867)
        540         11         40 -1.70571119E-06                    1_GWF-(1,26543)  1.56524514E-07                    1_GWF-(1,14868)
        541         11         41 -1.38021394E-06                    1_GWF-(1,26420)  1.68945217E-07                    1_GWF-(1,14867)
        542         11         42  1.59781374E-06                    1_GWF-(1,26623)  1.61139842E-07                    1_GWF-(1,14868)
        543         11         43  1.63351260E-06                    1_GWF-(1,26622)  7.31688970E-08                    1_GWF-(1,14869)
        544         11         44  1.78390510E-06                    1_GWF-(1,26649)  9.89047547E-08                    1_GWF-(1,14867)
        545         11         45  1.55349192E-06                    1_GWF-(1,26622)  9.59887389E-08                    1_GWF-(1,14868)
        546         11         46  1.23743231E-06                    1_GWF-(1,26665)  8.26425181E-08                    1_GWF-(1,14869)
        547         11         47  8.19123242E-07                    1_GWF-(1,26348)  7.89565858E-08                    1_GWF-(1,14868)
        548         12          1  5.62618246E-07                    1_GWF-(1,26218)  6.20098786E-08                    1_GWF-(1,14869)
 --------------------------------------------------------------------------------------------------------------------------------------



 MEMORY MANAGER TOTAL STORAGE BY DATA TYPE, IN MEGABYTES
 -------------------------------
                    ALLOCATED   
 DATA TYPE           MEMORY     
 -------------------------------
 Character        4.66090000E-02
 Logical          4.40000000E-05
 Integer          5.2037920     
 Real             11.901376     
 -------------------------------
 Total            17.151821     
 -------------------------------


 
 Run end date and time (yyyy/mm/dd hh:mm:ss): 2022/05/27 18:31:21
 Elapsed run time:  0.602 Seconds
 Normal termination of simulation.
