                                   MODFLOW 6
                U.S. GEOLOGICAL SURVEY MODULAR HYDROLOGIC MODEL
                            VERSION 6.2.2 07/30/2021

   MODFLOW 6 compiled Jul 31 2021 14:22:53 with IFORT compiler (ver. 19.10.3)

This software has been approved for release by the U.S. Geological 
Survey (USGS). Although the software has been subjected to rigorous 
review, the USGS reserves the right to update the software as needed 
pursuant to further analysis and review. No warranty, expressed or 
implied, is made by the USGS or the U.S. Government as to the 
functionality of the software and related material nor shall the 
fact of release constitute any such warranty. Furthermore, the 
software is released on condition that neither the USGS nor the U.S. 
Government shall be held liable for any damages resulting from its 
authorized or unauthorized use. Also refer to the USGS Water 
Resources Software User Rights Notice for complete use, copyright, 
and distribution information.


System command used to initiate simulation:
mf6

MODFLOW was compiled using uniform precision.

Real Variables
  KIND: 8
  TINY (smallest non-zero value):    2.225074-308
  HUGE (largest value):    1.797693+308
  PRECISION: 15
  BIT SIZE: 64

Integer Variables
  KIND: 4
  HUGE (largest value): 2147483647
  BIT SIZE: 32

Long Integer Variables
  KIND: 8
  HUGE (largest value): 9223372036854775807
  BIT SIZE: 64

Logical Variables
  KIND: 4
  BIT SIZE: 32
 

 OPENED mfsim.nam
 FILE TYPE:NAM   UNIT 1001   STATUS:OLD                 
 FORMAT:FORMATTED              ACCESS:SEQUENTIAL          
 ACTION:READ                

 # File generated by Flopy version 3.3.5 on 05/30/2022 at 17:40:36.

 READING SIMULATION OPTIONS
 END OF SIMULATION OPTIONS

 READING SIMULATION TIMING

 OPENED mfsim.tdis
 FILE TYPE:TDIS   UNIT 1002   STATUS:OLD                 
 FORMAT:FORMATTED              ACCESS:SEQUENTIAL          
 ACTION:READ                


 TDIS -- TEMPORAL DISCRETIZATION PACKAGE,
 VERSION 1 : 11/13/2014 - INPUT READ FROM UNIT 1002
 # File generated by Flopy version 3.3.5 on 05/30/2022 at 17:40:36.
 PROCESSING TDIS OPTIONS
    SIMULATION TIME UNIT IS SECONDS
 END OF TDIS OPTIONS
 PROCESSING TDIS DIMENSIONS
    1 STRESS PERIOD(S) IN SIMULATION
 END OF TDIS DIMENSIONS
 PROCESSING TDIS PERIODDATA


 STRESS PERIOD     LENGTH       TIME STEPS     MULTIPLIER FOR DELT
 ----------------------------------------------------------------------------
        1         5.000000          1                    1.000
 END OF TDIS PERIODDATA
 END OF SIMULATION TIMING

 READING SIMULATION MODELS
    GWF6 model ML will be created as model 1
 END OF SIMULATION MODELS

 READING SIMULATION EXCHANGES
 END OF SIMULATION EXCHANGES

 READING SOLUTIONGROUP

 Creating solution: SLN_1           

 OPENED mfsim.ims
 FILE TYPE:IMS   UNIT 1015   STATUS:OLD                 
 FORMAT:FORMATTED              ACCESS:SEQUENTIAL          
 ACTION:READ                

 END OF SIMULATION SOLUTIONGROUP

 IMS -- ITERATIVE MODEL SOLUTION PACKAGE, VERSION 6, 4/28/2017
         INPUT READ FROM UNIT 1015
 # File generated by Flopy version 3.3.5 on 05/30/2022 at 17:40:36.

 PROCESSING IMS OPTIONS
 END OF IMS OPTIONS

 PROCESSING IMS NONLINEAR
 END OF IMS NONLINEAR DATA
 ***UNDER-RELAXATION WILL NOT BE USED***
 
 ***IMS LINEAR SOLVER WILL BE USED***

 IMSLINEAR -- UNSTRUCTURED LINEAR SOLUTION PACKAGE, VERSION 8, 04/28/2017

 PROCESSING LINEAR DATA
 END OF LINEAR DATA
 
 OUTER ITERATION CONVERGENCE CRITERION    (DVCLOSE) =    0.100000E-04
 MAXIMUM NUMBER OF OUTER ITERATIONS        (MXITER) = 100
 SOLVER PRINTOUT INDEX                     (IPRIMS) = 2
 NONLINEAR ITERATION METHOD            (NONLINMETH) = 0
 LINEAR SOLUTION METHOD                   (LINMETH) = 1

       SOLUTION BY THE        CONJUGATE-GRADIENT       METHOD
 ------------------------------------------------------------------
 MAXIMUM OF 100 CALLS OF SOLUTION ROUTINE
 MAXIMUM OF 50 INTERNAL ITERATIONS PER CALL TO SOLUTION ROUTINE
 LINEAR ACCELERATION METHOD            = CG        
 MATRIX PRECONDITIONING TYPE           = INCOMPLETE LU       
 MATRIX SCALING APPROACH               = NO SCALING          
 MATRIX REORDERING APPROACH            = ORIGINAL ORDERING        
 NUMBER OF ORTHOGONALIZATIONS          = 0
 HEAD CHANGE CRITERION FOR CLOSURE     =    0.10000E-05
 RESIDUAL CHANGE CRITERION FOR CLOSURE =    0.10000E-04
 RESIDUAL CONVERGENCE OPTION           = 1
 RESIDUAL CONVERGENCE NORM             = INFINITY NORM S 
 RELAXATION FACTOR                     =    0.00000E+00



 
    Solving:  Stress period:     1    Time step:     1
 
1
                            STRESS PERIOD NO. 1, LENGTH =   5.000000    
                            -----------------------------------------------
                            NUMBER OF TIME STEPS = 1
                            MULTIPLIER FOR DELT =     1.000
                            INITIAL TIME STEP SIZE =   5.000000    

 SLN_1 OUTER ITERATION SUMMARY
 ----------------------------------------------------------------------------------------------------------
                                OUTER      INNER                    STEP   MAXIMUM CHANGE MODEL-(CELLID) OR
 OUTER ITERATION STEP       ITERATION  ITERATION  MAXIMUM CHANGE SUCCESS             MODEL-PACKAGE-(NUMBER)
 ----------------------------------------------------------------------------------------------------------
 Model                              1         50       99.592630                            1_GWF-(1,26519)
 Model                              2         50      -94.659930                            1_GWF-(1,26519)
 Model                              3         50     -0.29092090                            1_GWF-(1,25363)
 Model                              4         50 -4.66566939E-02                            1_GWF-(1,21392)
 Model                              5         50 -8.87958498E-03                            1_GWF-(1,11936)
 Model                              6         50 -4.75719593E-04                            1_GWF-(1,21267)
 Model                              7         50 -6.22029388E-05                            1_GWF-(1,25362)
 Model                              8         17 -5.21312005E-06                            1_GWF-(1,25576)
 Model                              9          1 -6.31921168E-07       *                    1_GWF-(1,26218)
 ----------------------------------------------------------------------------------------------------------


 9 CALLS TO NUMERICAL SOLUTION IN TIME STEP 1 STRESS PERIOD 1
 368 TOTAL ITERATIONS

 SLN_1 INNER ITERATION SUMMARY
 --------------------------------------------------------------------------------------------------------------------------------------
      TOTAL      OUTER      INNER                                                            MAXIMUM                                   
  ITERATION  ITERATION  ITERATION  MAXIMUM CHANGE      MAXIMUM CHANGE MODEL-(CELLID)        RESIDUAL    MAXIMUM RESIDUAL MODEL-(CELLID)
 --------------------------------------------------------------------------------------------------------------------------------------
          1          1          1       14.924239                    1_GWF-(1,26517)      0.58574951                    1_GWF-(1,11179)
          2          1          2       16.748172                    1_GWF-(1,26516)     -0.40866259                    1_GWF-(1,11179)
          3          1          3       20.982856                    1_GWF-(1,26563)     -0.33717349                    1_GWF-(1,11161)
          4          1          4       21.043199                    1_GWF-(1,26513)      0.33426538                    1_GWF-(1,11178)
          5          1          5       16.257277                    1_GWF-(1,26647)     -0.27745735                    1_GWF-(1,11208)
          6          1          6       20.067925                    1_GWF-(1,26649)     -0.30177906                    1_GWF-(1,11207)
          7          1          7       17.290472                    1_GWF-(1,26622)      0.23807018                    1_GWF-(1,11207)
          8          1          8       11.533491                    1_GWF-(1,26623)     -0.17297628                    1_GWF-(1,11207)
          9          1          9       10.568071                    1_GWF-(1,26589)      0.10840776                    1_GWF-(1,10957)
         10          1         10       9.8791760                    1_GWF-(1,26486)     -0.14176133                    1_GWF-(1,11158)
         11          1         11       9.3667525                    1_GWF-(1,26544)     -0.15302671                    1_GWF-(1,11207)
         12          1         12       7.8805160                    1_GWF-(1,26420)      0.11413869                    1_GWF-(1,11196)
         13          1         13       6.6607259                    1_GWF-(1,26422)  6.78630426E-02                    1_GWF-(1,11194)
         14          1         14      -6.2429821                    1_GWF-(1,26622)     -0.10089008                    1_GWF-(1,11153)
         15          1         15      -5.3215588                    1_GWF-(1,26623) -6.72275484E-02                    1_GWF-(1,11194)
         16          1         16      -4.3980498                    1_GWF-(1,26622)  8.60665968E-02                    1_GWF-(1,11180)
         17          1         17      -4.6782927                    1_GWF-(1,26588) -8.40758697E-02                    1_GWF-(1,11153)
         18          1         18      -5.6847645                    1_GWF-(1,26350) -8.59281266E-02                    1_GWF-(1,11194)
         19          1         19      -6.8413227                    1_GWF-(1,26588)  7.21696810E-02                    1_GWF-(1,11194)
         20          1         20      -5.8440438                    1_GWF-(1,26543) -4.83885784E-02                    1_GWF-(1,11155)
         21          1         21      -4.6445428                    1_GWF-(1,26487) -7.43139375E-02                    1_GWF-(1,11194)
         22          1         22      -5.3312751                    1_GWF-(1,26486)  5.42642906E-02                    1_GWF-(1,11200)
         23          1         23      -4.5745466                    1_GWF-(1,26487)  4.88411581E-02                    1_GWF-(1,11151)
         24          1         24      -4.2812271                    1_GWF-(1,26486) -4.56292986E-02                    1_GWF-(1,11194)
         25          1         25       3.8972632                    1_GWF-(1,26420) -4.77471535E-02                    1_GWF-(1,11109)
         26          1         26       4.3837948                    1_GWF-(1,26487)  4.81355434E-02                    1_GWF-(1,11109)
         27          1         27       4.0386851                    1_GWF-(1,26420)  4.01760804E-02                    1_GWF-(1,11108)
         28          1         28       2.4187894                    1_GWF-(1,26487) -4.02196987E-02                    1_GWF-(1,11195)
         29          1         29       2.1514150                    1_GWF-(1,26588)  4.60912983E-02                    1_GWF-(1,11109)
         30          1         30       2.9405594                    1_GWF-(1,26623)  4.78738113E-02                    1_GWF-(1,11110)
         31          1         31       2.5737167                    1_GWF-(1,26586) -4.22125699E-02                    1_GWF-(1,11150)
         32          1         32       2.2393360                    1_GWF-(1,26648) -3.46003174E-02                    1_GWF-(1,11065)
         33          1         33      -2.0842004                    1_GWF-(1,26422)  2.64779705E-02                    1_GWF-(1,11148)
         34          1         34       2.0426847                    1_GWF-(1,26665) -2.99235186E-02                    1_GWF-(1,11108)
         35          1         35      -1.8619220                    1_GWF-(1,26422) -3.00892605E-02                    1_GWF-(1,11158)
         36          1         36       1.5168712                    1_GWF-(1,26422)  3.10194409E-02                    1_GWF-(1,11065)
         37          1         37       1.4907862                    1_GWF-(1,26350)  3.53729914E-02                    1_GWF-(1,11200)
         38          1         38       1.2491704                    1_GWF-(1,26422)  3.64561545E-02                    1_GWF-(1,11203)
         39          1         39      -1.3994394                    1_GWF-(1,26649)  3.56169100E-02                    1_GWF-(1,11200)
         40          1         40      -1.1511196                    1_GWF-(1,26648) -3.10411456E-02                    1_GWF-(1,11206)
         41          1         41     -0.92485456                    1_GWF-(1,26649) -2.46010421E-02                    1_GWF-(1,11196)
         42          1         42     -0.73399704                    1_GWF-(1,26648) -2.42344732E-02                    1_GWF-(1,11195)
         43          1         43     -0.70866673                    1_GWF-(1,26586)  2.70455213E-02                    1_GWF-(1,11195)
         44          1         44     -0.74904713                    1_GWF-(1,26543)  2.42933162E-02                    1_GWF-(1,11112)
         45          1         45     -0.62448917                    1_GWF-(1,26542)  2.29765480E-02                    1_GWF-(1,11158)
         46          1         46     -0.85403675                    1_GWF-(1,26218)  3.08429819E-02                    1_GWF-(1,11153)
         47          1         47      -1.1805597                    1_GWF-(1,26217) -2.67211670E-02                    1_GWF-(1,11153)
         48          1         48      -1.3223999                    1_GWF-(1,26218) -2.05592635E-02                    1_GWF-(1,11152)
         49          1         49      -1.2752654                    1_GWF-(1,26217) -2.22542752E-02                    1_GWF-(1,11150)
         50          1         50      -1.1695964                    1_GWF-(1,26218) -2.18601204E-02                    1_GWF-(1,11153)
         51          2          1      -97.578145                    1_GWF-(1,26519)     -0.18738504                    1_GWF-(1,26458)
         52          2          2      -36.522213                    1_GWF-(1,26513) -5.25094580E-02                    1_GWF-(1,26516)
         53          2          3      -20.710287                    1_GWF-(1,26637)  5.25152851E-02                    1_GWF-(1,26516)
         54          2          4      -22.092166                    1_GWF-(1,26665) -1.91940129E-02                    1_GWF-(1,26519)
         55          2          5      -12.165872                    1_GWF-(1,26622)  1.99592613E-02                    1_GWF-(1,26519)
         56          2          6      -11.381043                    1_GWF-(1,26589)  1.44396323E-02                    1_GWF-(1,26516)
         57          2          7      -9.8990318                    1_GWF-(1,26543) -1.17582698E-02                    1_GWF-(1,26516)
         58          2          8      -7.9439820                    1_GWF-(1,26486)  8.87564421E-03                    1_GWF-(1,26519)
         59          2          9      -5.3081781                    1_GWF-(1,26487)  6.64734903E-03                    1_GWF-(1,26665)
         60          2         10      -4.5802257                    1_GWF-(1,26421) -5.72735444E-03                    1_GWF-(1,26665)
         61          2         11      -3.9815556                    1_GWF-(1,26350)  4.29455333E-03                    1_GWF-(1,26519)
         62          2         12      -2.9966415                    1_GWF-(1,26217)  3.49573433E-03                    1_GWF-(1,26516)
         63          2         13      -1.5467561                    1_GWF-(1,26622) -2.32774984E-03                    1_GWF-(1,26622)
         64          2         14      -1.2474991                    1_GWF-(1,26623) -2.20352464E-03                    1_GWF-(1,26563)
         65          2         15      -1.1630063                    1_GWF-(1,26622)  3.14844346E-03                    1_GWF-(1,26516)
         66          2         16      -1.5577110                    1_GWF-(1,25730)  4.08168766E-03                    1_GWF-(1,26599)
         67          2         17       1.3695709                    1_GWF-(1,26350) -2.92633439E-03                    1_GWF-(1,26563)
         68          2         18       1.3236351                    1_GWF-(1,26422) -1.98022860E-03                    1_GWF-(1,26588)
         69          2         19       1.2022721                    1_GWF-(1,26588)  1.94344096E-03                    1_GWF-(1,26588)
         70          2         20       1.0181431                    1_GWF-(1,26543) -2.30943564E-03                    1_GWF-(1,26563)
         71          2         21       1.0830200                    1_GWF-(1,26544)  1.97004768E-03                    1_GWF-(1,14801)
         72          2         22       1.1597454                    1_GWF-(1,26543)  2.44260394E-03                    1_GWF-(1,26601)
         73          2         23     -0.89217932                    1_GWF-(1,26218) -2.68677660E-03                    1_GWF-(1,26563)
         74          2         24      -1.4574860                    1_GWF-(1,26487)  2.64092938E-03                    1_GWF-(1,26486)
         75          2         25      -1.6351065                    1_GWF-(1,26486)  2.67716652E-03                    1_GWF-(1,26563)
         76          2         26      -1.5577921                    1_GWF-(1,26487) -2.71629346E-03                    1_GWF-(1,26563)
         77          2         27     -0.93190682                    1_GWF-(1,26420) -1.87721049E-03                    1_GWF-(1,26562)
         78          2         28      0.85822500                    1_GWF-(1,26217)  2.15196009E-03                    1_GWF-(1,26563)
         79          2         29      0.67290308                    1_GWF-(1,26218) -1.72201029E-03                    1_GWF-(1,26563)
         80          2         30      0.68386733                    1_GWF-(1,26420) -1.98279995E-03                    1_GWF-(1,26562)
         81          2         31     -0.47242620                    1_GWF-(1,26674)  1.35575330E-03                    1_GWF-(1,26562)
         82          2         32     -0.45726235                    1_GWF-(1,26421) -1.38941631E-03                    1_GWF-(1,26516)
         83          2         33     -0.57078972                    1_GWF-(1,26350) -1.60766851E-03                    1_GWF-(1,26562)
         84          2         34      0.58237877                    1_GWF-(1,26350)  1.86846142E-03                    1_GWF-(1,26562)
         85          2         35      0.86250232                    1_GWF-(1,26422) -1.30572355E-03                    1_GWF-(1,10966)
         86          2         36      0.55703744                    1_GWF-(1,26350) -1.70837058E-03                    1_GWF-(1,26562)
         87          2         37     -0.53328418                    1_GWF-(1,26350)  1.96042632E-03                    1_GWF-(1,26562)
         88          2         38     -0.34789712                    1_GWF-(1,26422)  1.35012349E-03                    1_GWF-(1,14960)
         89          2         39     -0.34344438                    1_GWF-(1,26544)  1.63015407E-03                    1_GWF-(1,14961)
         90          2         40     -0.37309167                    1_GWF-(1,26486) -2.05821900E-03                    1_GWF-(1,10966)
         91          2         41     -0.25883881                    1_GWF-(1,26420)  2.05507385E-03                    1_GWF-(1,14800)
         92          2         42     -0.20767557                    1_GWF-(1,26588)  2.41098965E-03                    1_GWF-(1,14801)
         93          2         43     -0.25438071                    1_GWF-(1,25852)  3.15177978E-03                    1_GWF-(1,10966)
         94          2         44     -0.23230062                    1_GWF-(1,26217)  3.13110867E-03                    1_GWF-(1,14801)
         95          2         45     -0.21003533                    1_GWF-(1,26420)  5.13799321E-03                    1_GWF-(1,10966)
         96          2         46     -0.19695563                    1_GWF-(1,26569)  4.08925383E-03                    1_GWF-(1,10961)
         97          2         47      0.18660365                    1_GWF-(1,26193)  6.20436941E-03                    1_GWF-(1,10966)
         98          2         48      0.14520243                    1_GWF-(1,26398)  4.60240141E-03                    1_GWF-(1,10961)
         99          2         49      0.14398398                    1_GWF-(1,22773)  5.99114750E-03                    1_GWF-(1,10966)
        100          2         50      0.14795419                    1_GWF-(1,26196)  4.29074873E-03                    1_GWF-(1,10961)
        101          3          1  8.17705897E-02                    1_GWF-(1,22783) -8.11289858E-03                    1_GWF-(1,11936)
        102          3          2      0.15030543                    1_GWF-(1,22783)  4.98347750E-03                    1_GWF-(1,10961)
        103          3          3      0.10551690                    1_GWF-(1,26649)  8.41640344E-03                    1_GWF-(1,11936)
        104          3          4     -0.15059983                    1_GWF-(1,22783) -5.53798964E-03                    1_GWF-(1,11936)
        105          3          5      0.14291898                    1_GWF-(1,26588)  4.34228563E-03                    1_GWF-(1,10966)
        106          3          6      0.11830297                    1_GWF-(1,26194)  3.33846353E-03                    1_GWF-(1,10961)
        107          3          7     -0.12426284                    1_GWF-(1,26543)  3.72058491E-03                    1_GWF-(1,10966)
        108          3          8     -0.11015889                    1_GWF-(1,26421)  1.99052363E-03                    1_GWF-(1,14801)
        109          3          9      0.11244322                    1_GWF-(1,26588)  2.27796701E-03                    1_GWF-(1,10966)
        110          3         10  9.28411646E-02                    1_GWF-(1,26420) -2.30602023E-03                    1_GWF-(1,14800)
        111          3         11      0.12726498                    1_GWF-(1,26486) -2.00903029E-03                    1_GWF-(1,14801)
        112          3         12      0.10674667                    1_GWF-(1,26648) -1.65245687E-03                    1_GWF-(1,14800)
        113          3         13     -0.10270916                    1_GWF-(1,26672) -1.35199169E-03                    1_GWF-(1,14801)
        114          3         14 -9.69133643E-02                    1_GWF-(1,26622)  1.14039280E-03                    1_GWF-(1,11936)
        115          3         15     -0.11445818                    1_GWF-(1,26350)  1.11319613E-03                    1_GWF-(1,15940)
        116          3         16     -0.13071985                    1_GWF-(1,26422) -9.86168000E-04                    1_GWF-(1,15940)
        117          3         17      0.10134849                    1_GWF-(1,26422) -1.11049902E-03                    1_GWF-(1,10966)
        118          3         18      0.12286268                    1_GWF-(1,26350)  8.75707039E-04                    1_GWF-(1,10966)
        119          3         19      0.11517879                    1_GWF-(1,26422)  9.42792426E-04                    1_GWF-(1,14801)
        120          3         20     -0.10992061                    1_GWF-(1,26422)  8.93570115E-04                    1_GWF-(1,14800)
        121          3         21 -8.43999015E-02                    1_GWF-(1,26420)  8.69982254E-04                    1_GWF-(1,14801)
        122          3         22     -0.10300465                    1_GWF-(1,26672)  6.28461593E-04                    1_GWF-(1,14800)
        123          3         23  7.84930702E-02                    1_GWF-(1,26648) -6.26924547E-04                    1_GWF-(1,10961)
        124          3         24      0.12093953                    1_GWF-(1,26588) -8.53928461E-04                    1_GWF-(1,10966)
        125          3         25      0.14273167                    1_GWF-(1,26543) -7.54567781E-04                    1_GWF-(1,14801)
        126          3         26      0.13642742                    1_GWF-(1,26588) -5.49779578E-04                    1_GWF-(1,10965)
        127          3         27      0.12072138                    1_GWF-(1,26420) -1.13187049E-03                    1_GWF-(1,10966)
        128          3         28 -7.43401310E-02                    1_GWF-(1,26586)  8.95671388E-04                    1_GWF-(1,14800)
        129          3         29 -9.44490953E-02                    1_GWF-(1,26543) -1.30182550E-03                    1_GWF-(1,10966)
        130          3         30 -9.23188307E-02                    1_GWF-(1,26420) -1.01346030E-03                    1_GWF-(1,14801)
        131          3         31     -0.10899258                    1_GWF-(1,26487)  7.34853188E-04                    1_GWF-(1,14801)
        132          3         32 -8.75305846E-02                    1_GWF-(1,26420) -3.22128104E-04                    1_GWF-(1,10966)
        133          3         33 -7.21876691E-02                    1_GWF-(1,26422)  8.96619886E-04                    1_GWF-(1,14800)
        134          3         34 -5.37811596E-02                    1_GWF-(1,26350)  1.26361032E-03                    1_GWF-(1,14801)
        135          3         35  4.69017144E-02                    1_GWF-(1,26623)  1.21936132E-03                    1_GWF-(1,14800)
        136          3         36  5.39757120E-02                    1_GWF-(1,26665)  1.00181912E-03                    1_GWF-(1,14801)
        137          3         37  5.96437957E-02                    1_GWF-(1,26666)  4.49288921E-04                    1_GWF-(1,14800)
        138          3         38  6.48110895E-02                    1_GWF-(1,26622)  6.46895655E-04                    1_GWF-(1,14800)
        139          3         39  5.22502320E-02                    1_GWF-(1,26649)  1.26990453E-03                    1_GWF-(1,14801)
        140          3         40  4.68480878E-02                    1_GWF-(1,26487) -1.51623234E-03                    1_GWF-(1,14801)
        141          3         41  6.98593665E-02                    1_GWF-(1,26665)  1.09394160E-03                    1_GWF-(1,14801)
        142          3         42 -9.18723127E-02                    1_GWF-(1,26665)  2.40233802E-04                    1_GWF-(1,10961)
        143          3         43 -9.17193132E-02                    1_GWF-(1,26666)  1.40218028E-03                    1_GWF-(1,14800)
        144          3         44  5.58365091E-02                    1_GWF-(1,26588)  2.05789788E-03                    1_GWF-(1,14801)
        145          3         45  8.31019884E-02                    1_GWF-(1,26665) -2.77958587E-03                    1_GWF-(1,14801)
        146          3         46  6.62341503E-02                    1_GWF-(1,26666) -3.02385447E-03                    1_GWF-(1,14800)
        147          3         47 -4.55344458E-02                    1_GWF-(1,26482) -2.98258109E-03                    1_GWF-(1,14801)
        148          3         48 -4.06373070E-02                    1_GWF-(1,26648)  2.15313761E-03                    1_GWF-(1,14801)
        149          3         49 -5.09672640E-02                    1_GWF-(1,26649) -1.87378619E-03                    1_GWF-(1,14801)
        150          3         50 -4.82364826E-02                    1_GWF-(1,26466) -1.24394884E-03                    1_GWF-(1,14800)
        151          4          1 -2.49594349E-02                    1_GWF-(1,11439) -8.92078293E-04                    1_GWF-(1,14801)
        152          4          2 -2.27798504E-02                    1_GWF-(1,11436)  9.14718103E-04                    1_GWF-(1,14801)
        153          4          3 -2.10041955E-02                    1_GWF-(1,26217) -9.37835161E-04                    1_GWF-(1,14801)
        154          4          4 -2.03285190E-02                    1_GWF-(1,26218) -8.21862384E-04                    1_GWF-(1,14800)
        155          4          5 -1.74630739E-02                    1_GWF-(1,26422) -6.40345724E-04                    1_GWF-(1,14801)
        156          4          6 -1.84486335E-02                    1_GWF-(1,26218) -4.04047680E-04                    1_GWF-(1,14800)
        157          4          7 -1.53554440E-02                    1_GWF-(1,26217) -1.57313105E-04                    1_GWF-(1,11516)
        158          4          8 -1.38127215E-02                    1_GWF-(1,26665)  1.01060189E-04                    1_GWF-(1,10966)
        159          4          9  1.72378129E-02                    1_GWF-(1,26665)  2.41168379E-04                    1_GWF-(1,14801)
        160          4         10 -1.54638041E-02                    1_GWF-(1,26665)  2.30395034E-04                    1_GWF-(1,14800)
        161          4         11  1.45366794E-02                    1_GWF-(1,26665)  1.19103364E-04                    1_GWF-(1,14801)
        162          4         12 -8.16003566E-03                    1_GWF-(1,26649)  1.22587078E-04                    1_GWF-(1,14801)
        163          4         13 -7.85232053E-03                    1_GWF-(1,26622)  2.08127807E-04                    1_GWF-(1,14800)
        164          4         14  9.10854621E-03                    1_GWF-(1,26622)  1.94875858E-04                    1_GWF-(1,14801)
        165          4         15  8.21547812E-03                    1_GWF-(1,26623)  1.03578118E-04                    1_GWF-(1,14800)
        166          4         16 -6.56281150E-03                    1_GWF-(1,26623)  7.81714022E-05                    1_GWF-(1,14800)
        167          4         17 -6.49247268E-03                    1_GWF-(1,26622)  1.86220230E-04                    1_GWF-(1,14801)
        168          4         18  4.39002865E-03                    1_GWF-(1,26589)  2.41516229E-04                    1_GWF-(1,14800)
        169          4         19  6.53057670E-03                    1_GWF-(1,26588)  2.30778242E-04                    1_GWF-(1,14801)
        170          4         20 -7.67025350E-03                    1_GWF-(1,26588)  1.03467321E-04                    1_GWF-(1,14800)
        171          4         21  7.05388482E-03                    1_GWF-(1,26420)  9.63094376E-05                    1_GWF-(1,14800)
        172          4         22  4.96202088E-03                    1_GWF-(1,26487)  2.24443161E-04                    1_GWF-(1,14801)
        173          4         23 -4.19348668E-03                    1_GWF-(1,26649) -3.14399794E-04                    1_GWF-(1,14801)
        174          4         24 -4.60045413E-03                    1_GWF-(1,26420) -3.66899066E-04                    1_GWF-(1,14800)
        175          4         25 -6.84790969E-03                    1_GWF-(1,26623) -3.11846191E-04                    1_GWF-(1,14801)
        176          4         26 -6.69223888E-03                    1_GWF-(1,26589) -1.32764174E-04                    1_GWF-(1,14800)
        177          4         27 -6.90718105E-03                    1_GWF-(1,26588) -1.13637665E-04                    1_GWF-(1,14800)
        178          4         28  6.64569491E-03                    1_GWF-(1,26588) -2.51266047E-04                    1_GWF-(1,14801)
        179          4         29 -4.14096954E-03                    1_GWF-(1,26544) -2.44655978E-04                    1_GWF-(1,14800)
        180          4         30  2.72546207E-03                    1_GWF-(1,26544)  2.01043327E-04                    1_GWF-(1,14800)
        181          4         31  4.06638526E-03                    1_GWF-(1,26486)  1.37695777E-04                    1_GWF-(1,14801)
        182          4         32 -3.52531921E-03                    1_GWF-(1,26422)  6.92778835E-05                    1_GWF-(1,14800)
        183          4         33  4.49659475E-03                    1_GWF-(1,26422)  4.51285704E-05                    1_GWF-(1,10966)
        184          4         34 -4.25174189E-03                    1_GWF-(1,26422)  9.07426112E-05                    1_GWF-(1,14801)
        185          4         35 -4.56801505E-03                    1_GWF-(1,26350)  1.38703847E-04                    1_GWF-(1,14800)
        186          4         36 -4.64485290E-03                    1_GWF-(1,26422)  1.57981507E-04                    1_GWF-(1,14801)
        187          4         37 -3.15597540E-03                    1_GWF-(1,26350)  1.49290721E-04                    1_GWF-(1,14800)
        188          4         38 -2.02810127E-03                    1_GWF-(1,26422)  1.47850531E-04                    1_GWF-(1,14801)
        189          4         39 -1.91558888E-03                    1_GWF-(1,22908)  1.28050710E-04                    1_GWF-(1,14800)
        190          4         40 -1.58871489E-03                    1_GWF-(1,22911)  1.17295004E-04                    1_GWF-(1,14801)
        191          4         41  1.66164231E-03                    1_GWF-(1,26394)  9.65349696E-05                    1_GWF-(1,14800)
        192          4         42 -1.49697121E-03                    1_GWF-(1,26663)  8.28960865E-05                    1_GWF-(1,14801)
        193          4         43 -1.61053076E-03                    1_GWF-(1,26674)  7.51133122E-05                    1_GWF-(1,14800)
        194          4         44  2.02564502E-03                    1_GWF-(1,26350)  6.00084562E-05                    1_GWF-(1,14801)
        195          4         45  1.62807003E-03                    1_GWF-(1,26218)  4.70755920E-05                    1_GWF-(1,10965)
        196          4         46  1.59529224E-03                    1_GWF-(1,26487)  7.17322036E-05                    1_GWF-(1,10966)
        197          4         47  9.83926759E-04                    1_GWF-(1,26673) -5.59512973E-05                    1_GWF-(1,10966)
        198          4         48  1.32343100E-03                    1_GWF-(1,26672)  7.01085579E-05                    1_GWF-(1,10966)
        199          4         49 -1.33047143E-03                    1_GWF-(1,26672)  4.82066234E-05                    1_GWF-(1,10961)
        200          4         50 -1.30970184E-03                    1_GWF-(1,26663)  5.27299126E-05                    1_GWF-(1,10966)
        201          5          1 -8.09827153E-03                    1_GWF-(1,11936)  2.21147157E-05                    1_GWF-(1,11424)
        202          5          2 -2.50793887E-03                    1_GWF-(1,11424)  2.83603448E-05                    1_GWF-(1,10966)
        203          5          3 -1.51207265E-03                    1_GWF-(1,11434)  2.12171272E-05                    1_GWF-(1,10961)
        204          5          4 -1.29557514E-03                    1_GWF-(1,11416)  3.71097775E-05                    1_GWF-(1,10966)
        205          5          5 -9.11643924E-04                    1_GWF-(1,11409)  3.19360349E-05                    1_GWF-(1,10965)
        206          5          6  1.12705679E-03                    1_GWF-(1,11414)  4.21501480E-05                    1_GWF-(1,10966)
        207          5          7 -1.19247163E-03                    1_GWF-(1,26672)  3.01046328E-05                    1_GWF-(1,10965)
        208          5          8  9.32801237E-04                    1_GWF-(1,26672)  3.45903643E-05                    1_GWF-(1,10966)
        209          5          9 -1.02637897E-03                    1_GWF-(1,26648)  1.84965772E-05                    1_GWF-(1,10965)
        210          5         10 -1.16921638E-03                    1_GWF-(1,26649)  1.40144985E-05                    1_GWF-(1,10966)
        211          5         11  1.52259356E-03                    1_GWF-(1,26649)  1.70149888E-05                    1_GWF-(1,10966)
        212          5         12  1.87776559E-03                    1_GWF-(1,26622)  1.28348659E-05                    1_GWF-(1,10961)
        213          5         13  1.75220522E-03                    1_GWF-(1,26623) -1.00637129E-05                    1_GWF-(1,10961)
        214          5         14  1.39251029E-03                    1_GWF-(1,26622)  8.74296690E-06                    1_GWF-(1,10975)
        215          5         15  9.74484435E-04                    1_GWF-(1,26623)  1.29288122E-05                    1_GWF-(1,10965)
        216          5         16  6.05127895E-04                    1_GWF-(1,26586) -1.92730332E-05                    1_GWF-(1,10965)
        217          5         17  7.05892311E-04                    1_GWF-(1,26544) -3.33786579E-05                    1_GWF-(1,10966)
        218          5         18  1.20874432E-03                    1_GWF-(1,26486) -2.33523970E-05                    1_GWF-(1,10961)
        219          5         19 -1.27720270E-03                    1_GWF-(1,26486)  9.59676821E-06                    1_GWF-(1,10965)
        220          5         20 -1.22597226E-03                    1_GWF-(1,26487)  1.14645695E-05                    1_GWF-(1,10961)
        221          5         21 -9.13887578E-04                    1_GWF-(1,26486) -2.39541923E-05                    1_GWF-(1,10965)
        222          5         22 -6.20059970E-04                    1_GWF-(1,26422) -3.24880217E-05                    1_GWF-(1,10966)
        223          5         23 -7.89021446E-04                    1_GWF-(1,26350)  4.56852635E-05                    1_GWF-(1,10966)
        224          5         24 -9.74121100E-04                    1_GWF-(1,26422) -4.62642359E-05                    1_GWF-(1,10966)
        225          5         25 -9.25024082E-04                    1_GWF-(1,26350) -3.12678951E-05                    1_GWF-(1,10961)
        226          5         26  1.02157331E-03                    1_GWF-(1,26350) -1.88279264E-05                    1_GWF-(1,10966)
        227          5         27  1.16744531E-03                    1_GWF-(1,26422) -1.52945069E-05                    1_GWF-(1,11172)
        228          5         28  9.30862267E-04                    1_GWF-(1,26350) -1.84119623E-05                    1_GWF-(1,10965)
        229          5         29  6.82199943E-04                    1_GWF-(1,26486) -3.06664450E-05                    1_GWF-(1,10966)
        230          5         30 -6.79344002E-04                    1_GWF-(1,26588)  3.13929960E-05                    1_GWF-(1,10966)
        231          5         31  7.54342003E-04                    1_GWF-(1,26588) -2.01707606E-05                    1_GWF-(1,10966)
        232          5         32 -6.82623068E-04                    1_GWF-(1,26588) -9.27374211E-06                    1_GWF-(1,11345)
        233          5         33 -6.04195852E-04                    1_GWF-(1,26422)  1.74400924E-05                    1_GWF-(1,10966)
        234          5         34 -5.24366884E-04                    1_GWF-(1,26350) -2.07601638E-05                    1_GWF-(1,10966)
        235          5         35 -3.58678989E-04                    1_GWF-(1,26422)  1.99624644E-05                    1_GWF-(1,10966)
        236          5         36 -2.36247624E-04                    1_GWF-(1,26420) -1.81381546E-05                    1_GWF-(1,10966)
        237          5         37 -1.86015426E-04                    1_GWF-(1,23992)  1.57180080E-05                    1_GWF-(1,10966)
        238          5         38  1.49196506E-04                    1_GWF-(1,26674) -1.20986293E-05                    1_GWF-(1,10966)
        239          5         39  1.77472606E-04                    1_GWF-(1,26663) -1.41625851E-05                    1_GWF-(1,10965)
        240          5         40  2.07678826E-04                    1_GWF-(1,26218)  1.42515122E-05                    1_GWF-(1,10965)
        241          5         41 -2.45400200E-04                    1_GWF-(1,26218)  1.50375921E-05                    1_GWF-(1,10966)
        242          5         42 -3.64309721E-04                    1_GWF-(1,26217) -1.54068173E-05                    1_GWF-(1,10966)
        243          5         43 -5.45813219E-04                    1_GWF-(1,26665)  1.02263986E-05                    1_GWF-(1,10966)
        244          5         44 -5.44222636E-04                    1_GWF-(1,26666)  6.70319956E-06                    1_GWF-(1,10967)
        245          5         45  5.26358345E-04                    1_GWF-(1,26666)  8.23501146E-06                    1_GWF-(1,10965)
        246          5         46  5.98551675E-04                    1_GWF-(1,26665)  1.28769169E-05                    1_GWF-(1,10966)
        247          5         47  4.15149199E-04                    1_GWF-(1,26666) -1.02877644E-05                    1_GWF-(1,10966)
        248          5         48  3.45487531E-04                    1_GWF-(1,26217)  1.00103701E-05                    1_GWF-(1,10966)
        249          5         49  3.42346506E-04                    1_GWF-(1,26218)  6.58396063E-06                    1_GWF-(1,10961)
        250          5         50  3.01671089E-04                    1_GWF-(1,26217)  5.46541942E-06                    1_GWF-(1,10965)
        251          6          1 -2.99637362E-04                    1_GWF-(1,26217)  3.98979067E-06                    1_GWF-(1,10960)
        252          6          2 -3.28384719E-04                    1_GWF-(1,26218)  3.19332881E-06                    1_GWF-(1,10963)
        253          6          3 -3.03730476E-04                    1_GWF-(1,26217) -5.67959648E-06                    1_GWF-(1,11514)
        254          6          4 -2.26451193E-04                    1_GWF-(1,26218)  4.23531082E-06                    1_GWF-(1,11514)
        255          6          5 -2.66626142E-04                    1_GWF-(1,26588)  4.35554247E-06                    1_GWF-(1,10963)
        256          6          6 -2.82655169E-04                    1_GWF-(1,26543) -4.04412768E-06                    1_GWF-(1,11514)
        257          6          7 -2.14632489E-04                    1_GWF-(1,26487)  2.74593789E-06                    1_GWF-(1,11131)
        258          6          8 -1.36525895E-04                    1_GWF-(1,26420)  2.90599149E-06                    1_GWF-(1,10963)
        259          6          9  1.41970099E-04                    1_GWF-(1,26622) -3.06355196E-06                    1_GWF-(1,11514)
        260          6         10  1.41872250E-04                    1_GWF-(1,26487) -2.12513583E-06                    1_GWF-(1,10991)
        261          6         11  1.32510046E-04                    1_GWF-(1,26622) -1.84488602E-06                    1_GWF-(1,10968)
        262          6         12 -1.04336279E-04                    1_GWF-(1,26622) -2.18190008E-06                    1_GWF-(1,11514)
        263          6         13  9.53807792E-05                    1_GWF-(1,26218) -1.78617437E-06                    1_GWF-(1,11136)
        264          6         14  6.84345916E-05                    1_GWF-(1,26217)  1.76661713E-06                    1_GWF-(1,10991)
        265          6         15  8.67168654E-05                    1_GWF-(1,26622)  1.94399518E-06                    1_GWF-(1,10990)
        266          6         16  1.06502063E-04                    1_GWF-(1,26649) -1.24701493E-06                    1_GWF-(1,11345)
        267          6         17 -1.01239244E-04                    1_GWF-(1,26649) -1.45703774E-06                    1_GWF-(1,10990)
        268          6         18 -7.90277924E-05                    1_GWF-(1,26622) -1.50308894E-06                    1_GWF-(1,11514)
        269          6         19  4.99502570E-05                    1_GWF-(1,26487) -2.33027686E-06                    1_GWF-(1,10966)
        270          6         20  5.38017958E-05                    1_GWF-(1,25766) -2.04590643E-06                    1_GWF-(1,11139)
        271          6         21  5.28614389E-05                    1_GWF-(1,25718) -1.54406800E-06                    1_GWF-(1,11514)
        272          6         22  4.52488776E-05                    1_GWF-(1,25716) -2.01783078E-06                    1_GWF-(1,10966)
        273          6         23 -6.63016083E-05                    1_GWF-(1,26486)  1.77366203E-06                    1_GWF-(1,11345)
        274          6         24 -6.59862115E-05                    1_GWF-(1,26544) -1.29369072E-06                    1_GWF-(1,10873)
        275          6         25 -7.03483063E-05                    1_GWF-(1,26422)  1.28582955E-06                    1_GWF-(1,11138)
        276          6         26 -8.38589791E-05                    1_GWF-(1,26350)  1.46327279E-06                    1_GWF-(1,11345)
        277          6         27 -8.43170672E-05                    1_GWF-(1,26422)  1.12190204E-06                    1_GWF-(1,10961)
        278          6         28  7.65258048E-05                    1_GWF-(1,26422)  9.05752305E-07                    1_GWF-(1,11142)
        279          6         29  7.12863704E-05                    1_GWF-(1,26588)  9.81671608E-07                    1_GWF-(1,11345)
        280          6         30 -5.55704009E-05                    1_GWF-(1,26588) -7.94719843E-07                    1_GWF-(1,11142)
        281          6         31  6.05029827E-05                    1_GWF-(1,26588) -7.53454497E-07                    1_GWF-(1,11162)
        282          6         32 -5.58411749E-05                    1_GWF-(1,26588)  7.57157046E-07                    1_GWF-(1,11345)
        283          6         33  4.51373993E-05                    1_GWF-(1,26422)  7.05313927E-07                    1_GWF-(1,11134)
        284          6         34 -4.17380679E-05                    1_GWF-(1,26486)  6.50713533E-07                    1_GWF-(1,11148)
        285          6         35 -3.28343864E-05                    1_GWF-(1,26350)  6.74910357E-07                    1_GWF-(1,11345)
        286          6         36 -3.36324619E-05                    1_GWF-(1,26422) -6.51759605E-07                    1_GWF-(1,11147)
        287          6         37 -2.89831696E-05                    1_GWF-(1,26350) -6.65972263E-07                    1_GWF-(1,11064)
        288          6         38 -2.40854665E-05                    1_GWF-(1,26422)  5.63574926E-07                    1_GWF-(1,11064)
        289          6         39  2.03999951E-05                    1_GWF-(1,25792)  5.96124311E-07                    1_GWF-(1,11063)
        290          6         40  2.77857252E-05                    1_GWF-(1,26648)  5.13472614E-07                    1_GWF-(1,14800)
        291          6         41  3.74960644E-05                    1_GWF-(1,26649)  3.80774986E-07                    1_GWF-(1,11064)
        292          6         42  3.75188808E-05                    1_GWF-(1,26486)  3.73096248E-07                    1_GWF-(1,10967)
        293          6         43  3.50957971E-05                    1_GWF-(1,26487)  3.70506064E-07                    1_GWF-(1,11147)
        294          6         44  2.92958046E-05                    1_GWF-(1,26486)  4.50766284E-07                    1_GWF-(1,11064)
        295          6         45  2.03477234E-05                    1_GWF-(1,26623)  4.02310104E-07                    1_GWF-(1,14800)
        296          6         46  2.08496377E-05                    1_GWF-(1,26486)  3.78216808E-07                    1_GWF-(1,11151)
        297          6         47  1.62032587E-05                    1_GWF-(1,26623)  3.34030552E-07                    1_GWF-(1,11150)
        298          6         48  1.51096940E-05                    1_GWF-(1,11413)  3.12965804E-07                    1_GWF-(1,11152)
        299          6         49  1.61099753E-05                    1_GWF-(1,26672)  3.38192654E-07                    1_GWF-(1,11151)
        300          6         50  2.05338457E-05                    1_GWF-(1,26649) -4.75839503E-07                    1_GWF-(1,11151)
        301          7          1 -2.07529259E-05                    1_GWF-(1,26649)  2.80458391E-07                    1_GWF-(1,11151)
        302          7          2 -1.70446345E-05                    1_GWF-(1,26648)  1.62006930E-07                    1_GWF-(1,10966)
        303          7          3 -2.28093322E-05                    1_GWF-(1,26649) -2.53057387E-07                    1_GWF-(1,11151)
        304          7          4 -2.37342000E-05                    1_GWF-(1,26487)  1.80193212E-07                    1_GWF-(1,11033)
        305          7          5 -2.14707748E-05                    1_GWF-(1,26486)  2.23430371E-07                    1_GWF-(1,10966)
        306          7          6 -1.70281269E-05                    1_GWF-(1,26487) -3.70819302E-07                    1_GWF-(1,11151)
        307          7          7 -1.70587362E-05                    1_GWF-(1,26674)  2.94350677E-07                    1_GWF-(1,11151)
        308          7          8  2.07551452E-05                    1_GWF-(1,26674)  2.16184578E-07                    1_GWF-(1,11132)
        309          7          9  2.00989700E-05                    1_GWF-(1,26663)  3.60722618E-07                    1_GWF-(1,11155)
        310          7         10 -1.93419151E-05                    1_GWF-(1,26666)  2.68934812E-07                    1_GWF-(1,11151)
        311          7         11 -2.32394245E-05                    1_GWF-(1,26665)  1.81746679E-07                    1_GWF-(1,11132)
        312          7         12 -1.70810498E-05                    1_GWF-(1,26623)  3.77571457E-07                    1_GWF-(1,11155)
        313          7         13  1.73966146E-05                    1_GWF-(1,26623) -3.40732725E-07                    1_GWF-(1,11150)
        314          7         14  1.53555312E-05                    1_GWF-(1,26622) -1.89257909E-07                    1_GWF-(1,11065)
        315          7         15  1.61511613E-05                    1_GWF-(1,26487)  2.46809837E-07                    1_GWF-(1,11155)
        316          7         16  1.62105570E-05                    1_GWF-(1,26622) -2.13745881E-07                    1_GWF-(1,11150)
        317          7         17  1.73766251E-05                    1_GWF-(1,26665) -1.92027246E-07                    1_GWF-(1,11107)
        318          7         18  1.34003579E-05                    1_GWF-(1,26543)  2.40712181E-07                    1_GWF-(1,11155)
        319          7         19  1.12587901E-05                    1_GWF-(1,26588) -2.18997053E-07                    1_GWF-(1,11150)
        320          7         20 -1.33838679E-05                    1_GWF-(1,26588) -1.78701123E-07                    1_GWF-(1,11065)
        321          7         21  1.48595474E-05                    1_GWF-(1,26588) -1.98349178E-07                    1_GWF-(1,11151)
        322          7         22 -1.78399492E-05                    1_GWF-(1,26588) -1.80627422E-07                    1_GWF-(1,10960)
        323          7         23 -1.31988293E-05                    1_GWF-(1,26543) -2.10971456E-07                    1_GWF-(1,11065)
        324          7         24 -1.30813326E-05                    1_GWF-(1,26588) -2.48874414E-07                    1_GWF-(1,11151)
        325          7         25 -7.56491899E-06                    1_GWF-(1,26543)  2.08470332E-07                    1_GWF-(1,11144)
        326          7         26  5.57804593E-06                    1_GWF-(1,26422) -2.39829280E-07                    1_GWF-(1,11147)
        327          7         27  6.29761077E-06                    1_GWF-(1,26350)  2.67943489E-07                    1_GWF-(1,11107)
        328          7         28  8.60108416E-06                    1_GWF-(1,26486) -1.99305812E-07                    1_GWF-(1,11107)
        329          7         29  7.75598068E-06                    1_GWF-(1,26350) -1.66178295E-07                    1_GWF-(1,11131)
        330          7         30  9.68190672E-06                    1_GWF-(1,26422) -1.47917702E-07                    1_GWF-(1,10969)
        331          7         31  1.03120380E-05                    1_GWF-(1,26350) -1.68790241E-07                    1_GWF-(1,11107)
        332          7         32  9.82755819E-06                    1_GWF-(1,26422) -1.17208107E-07                    1_GWF-(1,10966)
        333          7         33  7.14025146E-06                    1_GWF-(1,26350) -1.03042699E-07                    1_GWF-(1,11141)
        334          7         34  7.83408878E-06                    1_GWF-(1,26486) -1.02856036E-07                    1_GWF-(1,11107)
        335          7         35  6.07683007E-06                    1_GWF-(1,26622) -9.08108294E-08                    1_GWF-(1,11136)
        336          7         36 -7.86346608E-06                    1_GWF-(1,26622) -7.26992478E-08                    1_GWF-(1,11151)
        337          7         37 -8.15349377E-06                    1_GWF-(1,26649)  8.00174094E-08                    1_GWF-(1,11151)
        338          7         38 -5.40843279E-06                    1_GWF-(1,26422) -8.15167591E-08                    1_GWF-(1,11136)
        339          7         39 -4.86504080E-06                    1_GWF-(1,26350)  8.70203494E-08                    1_GWF-(1,11142)
        340          7         40 -4.29260754E-06                    1_GWF-(1,26421)  9.09980139E-08                    1_GWF-(1,11151)
        341          7         41 -5.04858762E-06                    1_GWF-(1,26544) -7.19342516E-08                    1_GWF-(1,11136)
        342          7         42 -6.85488334E-06                    1_GWF-(1,26486)  6.51244899E-08                    1_GWF-(1,10969)
        343          7         43 -5.64025232E-06                    1_GWF-(1,26487)  7.86965400E-08                    1_GWF-(1,11146)
        344          7         44  7.18840689E-06                    1_GWF-(1,26487)  7.58021999E-08                    1_GWF-(1,10968)
        345          7         45  7.16972921E-06                    1_GWF-(1,26486)  7.22456105E-08                    1_GWF-(1,11155)
        346          7         46  5.31846800E-06                    1_GWF-(1,26588)  1.10680981E-07                    1_GWF-(1,10963)
        347          7         47  3.86542017E-06                    1_GWF-(1,26420) -9.47798635E-08                    1_GWF-(1,10963)
        348          7         48  4.59011928E-06                    1_GWF-(1,26218)  7.36927469E-08                    1_GWF-(1,11130)
        349          7         49  4.50148019E-06                    1_GWF-(1,26217)  6.93612500E-08                    1_GWF-(1,10960)
        350          7         50  3.61854197E-06                    1_GWF-(1,26218)  4.87111604E-08                    1_GWF-(1,11062)
        351          8          1 -3.80801571E-06                    1_GWF-(1,26218) -5.22675328E-08                    1_GWF-(1,14801)
        352          8          2 -4.57998631E-06                    1_GWF-(1,26217) -3.89408630E-08                    1_GWF-(1,14800)
        353          8          3 -3.43971765E-06                    1_GWF-(1,26666) -5.50216001E-08                    1_GWF-(1,11514)
        354          8          4 -3.75875358E-06                    1_GWF-(1,26665) -4.10329243E-08                    1_GWF-(1,11135)
        355          8          5 -3.67708447E-06                    1_GWF-(1,26588)  3.63143838E-08                    1_GWF-(1,10963)
        356          8          6 -3.08365129E-06                    1_GWF-(1,26543) -4.53978984E-08                    1_GWF-(1,11514)
        357          8          7 -2.23074548E-06                    1_GWF-(1,26217)  2.93165341E-08                    1_GWF-(1,11139)
        358          8          8  2.67227832E-06                    1_GWF-(1,26588) -3.17269860E-08                    1_GWF-(1,11060)
        359          8          9  2.85345843E-06                    1_GWF-(1,26543) -3.17820815E-08                    1_GWF-(1,11514)
        360          8         10  2.72699090E-06                    1_GWF-(1,26588) -2.46618449E-08                    1_GWF-(1,10963)
        361          8         11 -1.99188998E-06                    1_GWF-(1,26665) -2.85662241E-08                    1_GWF-(1,11060)
        362          8         12  1.30416035E-06                    1_GWF-(1,26218) -2.69042080E-08                    1_GWF-(1,11514)
        363          8         13 -1.64044564E-06                    1_GWF-(1,26649)  1.95237515E-08                    1_GWF-(1,10967)
        364          8         14  1.93385910E-06                    1_GWF-(1,26649)  2.10217239E-08                    1_GWF-(1,14800)
        365          8         15  2.07199638E-06                    1_GWF-(1,26622) -2.41558038E-08                    1_GWF-(1,11106)
        366          8         16  1.37720216E-06                    1_GWF-(1,26649) -2.12445664E-08                    1_GWF-(1,11345)
        367          8         17 -8.79002501E-07                    1_GWF-(1,26487)  2.24061453E-08                    1_GWF-(1,10993)
        368          9          1 -6.31921167E-07                    1_GWF-(1,26218) -1.71540541E-08                    1_GWF-(1,11132)
 --------------------------------------------------------------------------------------------------------------------------------------



 MEMORY MANAGER TOTAL STORAGE BY DATA TYPE, IN MEGABYTES
 -------------------------------
                    ALLOCATED   
 DATA TYPE           MEMORY     
 -------------------------------
 Character        4.66090000E-02
 Logical          4.40000000E-05
 Integer          5.2037920     
 Real             11.901376     
 -------------------------------
 Total            17.151821     
 -------------------------------


 
 Run end date and time (yyyy/mm/dd hh:mm:ss): 2022/05/30 22:21:19
 Elapsed run time:  0.516 Seconds
 Normal termination of simulation.
