                                   MODFLOW 6
                U.S. GEOLOGICAL SURVEY MODULAR HYDROLOGIC MODEL
                            VERSION 6.2.2 07/30/2021

   MODFLOW 6 compiled Jul 31 2021 14:22:53 with IFORT compiler (ver. 19.10.3)

This software has been approved for release by the U.S. Geological 
Survey (USGS). Although the software has been subjected to rigorous 
review, the USGS reserves the right to update the software as needed 
pursuant to further analysis and review. No warranty, expressed or 
implied, is made by the USGS or the U.S. Government as to the 
functionality of the software and related material nor shall the 
fact of release constitute any such warranty. Furthermore, the 
software is released on condition that neither the USGS nor the U.S. 
Government shall be held liable for any damages resulting from its 
authorized or unauthorized use. Also refer to the USGS Water 
Resources Software User Rights Notice for complete use, copyright, 
and distribution information.


System command used to initiate simulation:
mf6

MODFLOW was compiled using uniform precision.

Real Variables
  KIND: 8
  TINY (smallest non-zero value):    2.225074-308
  HUGE (largest value):    1.797693+308
  PRECISION: 15
  BIT SIZE: 64

Integer Variables
  KIND: 4
  HUGE (largest value): 2147483647
  BIT SIZE: 32

Long Integer Variables
  KIND: 8
  HUGE (largest value): 9223372036854775807
  BIT SIZE: 64

Logical Variables
  KIND: 4
  BIT SIZE: 32
 

 OPENED mfsim.nam
 FILE TYPE:NAM   UNIT 1001   STATUS:OLD                 
 FORMAT:FORMATTED              ACCESS:SEQUENTIAL          
 ACTION:READ                

 # File generated by Flopy version 3.3.5 on 06/01/2022 at 13:18:41.

 READING SIMULATION OPTIONS
 END OF SIMULATION OPTIONS

 READING SIMULATION TIMING

 OPENED mfsim.tdis
 FILE TYPE:TDIS   UNIT 1002   STATUS:OLD                 
 FORMAT:FORMATTED              ACCESS:SEQUENTIAL          
 ACTION:READ                


 TDIS -- TEMPORAL DISCRETIZATION PACKAGE,
 VERSION 1 : 11/13/2014 - INPUT READ FROM UNIT 1002
 # File generated by Flopy version 3.3.5 on 06/01/2022 at 13:18:41.
 PROCESSING TDIS OPTIONS
    SIMULATION TIME UNIT IS SECONDS
 END OF TDIS OPTIONS
 PROCESSING TDIS DIMENSIONS
    1 STRESS PERIOD(S) IN SIMULATION
 END OF TDIS DIMENSIONS
 PROCESSING TDIS PERIODDATA


 STRESS PERIOD     LENGTH       TIME STEPS     MULTIPLIER FOR DELT
 ----------------------------------------------------------------------------
        1         5.000000          1                    1.000
 END OF TDIS PERIODDATA
 END OF SIMULATION TIMING

 READING SIMULATION MODELS
    GWF6 model ML will be created as model 1
 END OF SIMULATION MODELS

 READING SIMULATION EXCHANGES
 END OF SIMULATION EXCHANGES

 READING SOLUTIONGROUP

 Creating solution: SLN_1           

 OPENED mfsim.ims
 FILE TYPE:IMS   UNIT 1015   STATUS:OLD                 
 FORMAT:FORMATTED              ACCESS:SEQUENTIAL          
 ACTION:READ                

 END OF SIMULATION SOLUTIONGROUP

 IMS -- ITERATIVE MODEL SOLUTION PACKAGE, VERSION 6, 4/28/2017
         INPUT READ FROM UNIT 1015
 # File generated by Flopy version 3.3.5 on 06/01/2022 at 13:18:41.

 PROCESSING IMS OPTIONS
 END OF IMS OPTIONS

 PROCESSING IMS NONLINEAR
 END OF IMS NONLINEAR DATA
 ***UNDER-RELAXATION WILL NOT BE USED***
 
 ***IMS LINEAR SOLVER WILL BE USED***

 IMSLINEAR -- UNSTRUCTURED LINEAR SOLUTION PACKAGE, VERSION 8, 04/28/2017

 PROCESSING LINEAR DATA
 END OF LINEAR DATA
 
 OUTER ITERATION CONVERGENCE CRITERION    (DVCLOSE) =    0.100000E-04
 MAXIMUM NUMBER OF OUTER ITERATIONS        (MXITER) = 100
 SOLVER PRINTOUT INDEX                     (IPRIMS) = 2
 NONLINEAR ITERATION METHOD            (NONLINMETH) = 0
 LINEAR SOLUTION METHOD                   (LINMETH) = 1

       SOLUTION BY THE        CONJUGATE-GRADIENT       METHOD
 ------------------------------------------------------------------
 MAXIMUM OF 100 CALLS OF SOLUTION ROUTINE
 MAXIMUM OF 50 INTERNAL ITERATIONS PER CALL TO SOLUTION ROUTINE
 LINEAR ACCELERATION METHOD            = CG        
 MATRIX PRECONDITIONING TYPE           = INCOMPLETE LU       
 MATRIX SCALING APPROACH               = NO SCALING          
 MATRIX REORDERING APPROACH            = ORIGINAL ORDERING        
 NUMBER OF ORTHOGONALIZATIONS          = 0
 HEAD CHANGE CRITERION FOR CLOSURE     =    0.10000E-05
 RESIDUAL CHANGE CRITERION FOR CLOSURE =    0.10000E-04
 RESIDUAL CONVERGENCE OPTION           = 1
 RESIDUAL CONVERGENCE NORM             = INFINITY NORM S 
 RELAXATION FACTOR                     =    0.00000E+00



 
    Solving:  Stress period:     1    Time step:     1
 
1
                            STRESS PERIOD NO. 1, LENGTH =   5.000000    
                            -----------------------------------------------
                            NUMBER OF TIME STEPS = 1
                            MULTIPLIER FOR DELT =     1.000
                            INITIAL TIME STEP SIZE =   5.000000    

 SLN_1 OUTER ITERATION SUMMARY
 ----------------------------------------------------------------------------------------------------------
                                OUTER      INNER                    STEP   MAXIMUM CHANGE MODEL-(CELLID) OR
 OUTER ITERATION STEP       ITERATION  ITERATION  MAXIMUM CHANGE SUCCESS             MODEL-PACKAGE-(NUMBER)
 ----------------------------------------------------------------------------------------------------------
 Model                              1         50       27.200119                            1_GWF-(1,26519)
 Model                              2         50      -22.263022                            1_GWF-(1,26519)
 Model                              3         50       1.6860889                            1_GWF-(1,24191)
 Model                              4         50     -0.32726727                            1_GWF-(1,24362)
 Model                              5         50      0.10893930                            1_GWF-(1,23068)
 Model                              6         50 -3.64476038E-02                             1_GWF-(1,8836)
 Model                              7         50  1.07496528E-02                            1_GWF-(1,24772)
 Model                              8         50 -4.39362436E-03                            1_GWF-(1,11439)
 Model                              9         50  1.28564668E-03                            1_GWF-(1,24769)
 Model                             10         50 -4.89359343E-04                             1_GWF-(1,8273)
 Model                             11         50  1.52157371E-04                            1_GWF-(1,24769)
 Model                             12         50 -5.82772029E-05                             1_GWF-(1,8542)
 Model                             13         50  1.78898944E-05                            1_GWF-(1,24770)
 Model                             14         12 -5.05242768E-06                            1_GWF-(1,24723)
 Model                             15          1 -9.11110028E-07       *                    1_GWF-(1,26666)
 ----------------------------------------------------------------------------------------------------------


 15 CALLS TO NUMERICAL SOLUTION IN TIME STEP 1 STRESS PERIOD 1
 663 TOTAL ITERATIONS

 SLN_1 INNER ITERATION SUMMARY
 --------------------------------------------------------------------------------------------------------------------------------------
      TOTAL      OUTER      INNER                                                            MAXIMUM                                   
  ITERATION  ITERATION  ITERATION  MAXIMUM CHANGE      MAXIMUM CHANGE MODEL-(CELLID)        RESIDUAL    MAXIMUM RESIDUAL MODEL-(CELLID)
 --------------------------------------------------------------------------------------------------------------------------------------
          1          1          1      -11.760872                    1_GWF-(1,12785)      0.58879315                    1_GWF-(1,15911)
          2          1          2       5.9162834                    1_GWF-(1,26601)      0.39574259                    1_GWF-(1,15921)
          3          1          3       6.0584163                    1_GWF-(1,26565)      0.35191459                    1_GWF-(1,15940)
          4          1          4       5.5073283                    1_GWF-(1,26510)      0.26865194                    1_GWF-(1,15975)
          5          1          5       4.0317957                    1_GWF-(1,26647)     -0.12391177                    1_GWF-(1,15912)
          6          1          6       4.0186267                    1_GWF-(1,26649) -8.08733897E-02                    1_GWF-(1,15918)
          7          1          7       3.3250329                    1_GWF-(1,26663) -9.73899776E-02                    1_GWF-(1,15948)
          8          1          8       4.3716377                    1_GWF-(1,26665) -9.65458235E-02                    1_GWF-(1,15942)
          9          1          9       4.6589174                    1_GWF-(1,26666) -6.07509831E-02                    1_GWF-(1,15940)
         10          1         10       6.3967878                    1_GWF-(1,26665) -6.07791168E-02                    1_GWF-(1,15948)
         11          1         11       4.2554520                    1_GWF-(1,26666)  6.09161443E-02                    1_GWF-(1,15940)
         12          1         12       3.3020873                    1_GWF-(1,26649)  6.16209386E-02                    1_GWF-(1,15942)
         13          1         13       2.9604304                    1_GWF-(1,26622)  4.33754317E-02                    1_GWF-(1,15940)
         14          1         14      -2.8635545                    1_GWF-(1,26622) -3.52897906E-02                    1_GWF-(1,15921)
         15          1         15      -2.3572948                    1_GWF-(1,26623)  3.61145191E-02                    1_GWF-(1,10652)
         16          1         16      -2.1397802                    1_GWF-(1,26622)  4.14003047E-02                    1_GWF-(1,10650)
         17          1         17      -2.0029870                    1_GWF-(1,26623)  3.09461765E-02                    1_GWF-(1,14799)
         18          1         18      -2.1303140                    1_GWF-(1,26589) -3.45650319E-02                    1_GWF-(1,15941)
         19          1         19      -3.6179670                    1_GWF-(1,26588)  4.22277450E-02                    1_GWF-(1,10966)
         20          1         20      -3.8339326                    1_GWF-(1,26543)  4.46092541E-02                    1_GWF-(1,10650)
         21          1         21      -3.4112485                    1_GWF-(1,26588) -2.91961864E-02                    1_GWF-(1,11194)
         22          1         22      -3.1473055                    1_GWF-(1,26486)  3.35005254E-02                    1_GWF-(1,10652)
         23          1         23      -3.3101123                    1_GWF-(1,26487)  3.39321513E-02                    1_GWF-(1,10650)
         24          1         24      -3.4226598                    1_GWF-(1,26486)  3.23315775E-02                    1_GWF-(1,14799)
         25          1         25      -2.8549621                    1_GWF-(1,26487)  2.54979767E-02                    1_GWF-(1,10955)
         26          1         26       2.5723438                    1_GWF-(1,20913)  3.03094465E-02                    1_GWF-(1,10651)
         27          1         27       2.5091125                    1_GWF-(1,20921)  3.13345918E-02                    1_GWF-(1,15853)
         28          1         28       1.7702843                    1_GWF-(1,26487)  2.24284477E-02                    1_GWF-(1,11180)
         29          1         29       1.6952743                    1_GWF-(1,26420)  2.26665342E-02                    1_GWF-(1,10652)
         30          1         30       1.7991566                    1_GWF-(1,26422)  2.63808779E-02                    1_GWF-(1,10650)
         31          1         31       1.7877349                    1_GWF-(1,26350) -2.11176109E-02                    1_GWF-(1,10966)
         32          1         32       1.6594824                    1_GWF-(1,26422) -2.51542239E-02                    1_GWF-(1,10963)
         33          1         33       1.4160101                    1_GWF-(1,26350) -1.70126651E-02                    1_GWF-(1,10958)
         34          1         34       1.3708320                    1_GWF-(1,26422) -1.68661541E-02                    1_GWF-(1,10965)
         35          1         35       1.0715295                    1_GWF-(1,26350) -2.32122219E-02                    1_GWF-(1,10963)
         36          1         36      0.79003978                    1_GWF-(1,26422) -1.90604299E-02                    1_GWF-(1,10958)
         37          1         37     -0.89566549                    1_GWF-(1,26422) -1.57307322E-02                    1_GWF-(1,10968)
         38          1         38     -0.94748964                    1_GWF-(1,26350) -1.51586930E-02                    1_GWF-(1,11180)
         39          1         39     -0.96869221                    1_GWF-(1,26422)  1.95190671E-02                    1_GWF-(1,15942)
         40          1         40     -0.89914573                    1_GWF-(1,26350) -2.10553077E-02                    1_GWF-(1,15941)
         41          1         41     -0.75388799                    1_GWF-(1,26649)  2.02416807E-02                    1_GWF-(1,15939)
         42          1         42     -0.88502173                    1_GWF-(1,26623)  1.95732493E-02                    1_GWF-(1,15940)
         43          1         43     -0.78148400                    1_GWF-(1,26586) -1.65874759E-02                    1_GWF-(1,15940)
         44          1         44     -0.62558712                    1_GWF-(1,26623) -1.98706322E-02                    1_GWF-(1,15941)
         45          1         45      0.49201298                    1_GWF-(1,26218)  2.23184477E-02                    1_GWF-(1,15941)
         46          1         46     -0.58810896                    1_GWF-(1,20926)  1.60550033E-02                    1_GWF-(1,15940)
         47          1         47     -0.62534373                    1_GWF-(1,20933) -2.20143694E-02                    1_GWF-(1,15940)
         48          1         48     -0.69584414                    1_GWF-(1,21272) -1.86296384E-02                    1_GWF-(1,15941)
         49          1         49     -0.69563777                    1_GWF-(1,21261)  2.04662865E-02                    1_GWF-(1,15941)
         50          1         50     -0.71435865                    1_GWF-(1,26218) -2.15464245E-02                    1_GWF-(1,15941)
         51          2          1      -22.660169                    1_GWF-(1,26519)     -0.16201956                    1_GWF-(1,26458)
         52          2          2      -8.8041283                    1_GWF-(1,26569)  4.60227764E-02                    1_GWF-(1,26458)
         53          2          3      -4.0477085                    1_GWF-(1,26637)  2.53905134E-02                    1_GWF-(1,26516)
         54          2          4      -4.4837381                    1_GWF-(1,26665) -2.02341803E-02                    1_GWF-(1,26458)
         55          2          5      -3.2980377                    1_GWF-(1,26649)  1.75286838E-02                    1_GWF-(1,26458)
         56          2          6      -2.6228997                    1_GWF-(1,26589)  1.06575694E-02                    1_GWF-(1,26516)
         57          2          7      -2.3328022                    1_GWF-(1,26543) -1.07184104E-02                    1_GWF-(1,15940)
         58          2          8      -2.0683256                    1_GWF-(1,26486)  1.22376622E-02                    1_GWF-(1,15940)
         59          2          9      -1.5988800                    1_GWF-(1,26487)  1.05436231E-02                     1_GWF-(1,9291)
         60          2         10      -1.4644244                    1_GWF-(1,26350)  1.05253801E-02                     1_GWF-(1,9290)
         61          2         11      -1.2162527                    1_GWF-(1,26422)  1.04832479E-02                     1_GWF-(1,9290)
         62          2         12     -0.97937207                    1_GWF-(1,26217)  1.04271632E-02                     1_GWF-(1,9290)
         63          2         13     -0.83901980                    1_GWF-(1,26218)  1.03616784E-02                     1_GWF-(1,9290)
         64          2         14     -0.60600129                    1_GWF-(1,26649)  1.02671058E-02                     1_GWF-(1,9290)
         65          2         15     -0.70356444                    1_GWF-(1,26622)  1.01022458E-02                     1_GWF-(1,9290)
         66          2         16     -0.80614648                    1_GWF-(1,25515)  9.90243381E-03                     1_GWF-(1,9290)
         67          2         17       1.1439638                    1_GWF-(1,26350) -9.74693207E-03                    1_GWF-(1,15940)
         68          2         18       1.0577876                    1_GWF-(1,26217)  9.66917369E-03                     1_GWF-(1,9290)
         69          2         19      0.90015162                    1_GWF-(1,26218)  9.63520235E-03                     1_GWF-(1,9290)
         70          2         20     -0.57695552                    1_GWF-(1,26588)  9.61342949E-03                     1_GWF-(1,9290)
         71          2         21       1.1005184                    1_GWF-(1,26588)  9.58399263E-03                     1_GWF-(1,9290)
         72          2         22       1.4822107                    1_GWF-(1,26543)  9.41574574E-03                     1_GWF-(1,9290)
         73          2         23      0.89089355                    1_GWF-(1,26542)  9.09915407E-03                     1_GWF-(1,9291)
         74          2         24     -0.88577452                    1_GWF-(1,26422)  8.73924630E-03                     1_GWF-(1,9290)
         75          2         25      -1.1871453                    1_GWF-(1,26486)  8.37900698E-03                     1_GWF-(1,9291)
         76          2         26      -1.3297987                    1_GWF-(1,26487)  8.08695887E-03                     1_GWF-(1,9290)
         77          2         27     -0.93022680                    1_GWF-(1,26420)  7.85036642E-03                     1_GWF-(1,9291)
         78          2         28     -0.48936610                    1_GWF-(1,26543)  7.68660462E-03                     1_GWF-(1,9291)
         79          2         29     -0.47777279                    1_GWF-(1,26327)  7.54891126E-03                     1_GWF-(1,9290)
         80          2         30      0.39485861                    1_GWF-(1,26420)  8.88915073E-03                    1_GWF-(1,15941)
         81          2         31     -0.40187299                    1_GWF-(1,26184)  1.37799449E-02                    1_GWF-(1,15940)
         82          2         32     -0.41711209                    1_GWF-(1,26672)  1.80417780E-02                    1_GWF-(1,15941)
         83          2         33     -0.46966696                    1_GWF-(1,26156)  2.34254637E-02                    1_GWF-(1,15940)
         84          2         34     -0.46327218                    1_GWF-(1,25790) -2.70150715E-02                    1_GWF-(1,15940)
         85          2         35      0.65990106                    1_GWF-(1,26422) -2.72641341E-02                    1_GWF-(1,15941)
         86          2         36      0.56929593                    1_GWF-(1,26350) -2.03571227E-02                    1_GWF-(1,15940)
         87          2         37     -0.56008641                    1_GWF-(1,26350) -1.07925212E-02                    1_GWF-(1,15941)
         88          2         38      0.61306487                    1_GWF-(1,26350)  7.03176855E-03                    1_GWF-(1,10650)
         89          2         39      0.57936139                    1_GWF-(1,26422) -1.17644343E-02                    1_GWF-(1,15940)
         90          2         40     -0.52991255                    1_GWF-(1,26422)  1.90065121E-02                    1_GWF-(1,15940)
         91          2         41      0.40568747                    1_GWF-(1,20977) -2.12619334E-02                    1_GWF-(1,15940)
         92          2         42      0.29899649                    1_GWF-(1,21288)  2.38981889E-02                    1_GWF-(1,15940)
         93          2         43      0.32054257                    1_GWF-(1,21283) -2.30920868E-02                    1_GWF-(1,15940)
         94          2         44      0.34181991                    1_GWF-(1,21271)  2.43418419E-02                    1_GWF-(1,15940)
         95          2         45      0.34747082                    1_GWF-(1,20578) -2.52597746E-02                    1_GWF-(1,15940)
         96          2         46      0.38748820                    1_GWF-(1,20580) -2.28389783E-02                    1_GWF-(1,15941)
         97          2         47      0.40548038                    1_GWF-(1,20570) -1.94746108E-02                    1_GWF-(1,15940)
         98          2         48     -0.30594378                    1_GWF-(1,26422) -1.45871621E-02                    1_GWF-(1,15941)
         99          2         49     -0.30217959                    1_GWF-(1,20996)  1.15866490E-02                    1_GWF-(1,10652)
        100          2         50     -0.34324797                    1_GWF-(1,20983)  9.24855131E-03                    1_GWF-(1,10651)
        101          3          1      0.21653878                    1_GWF-(1,26673) -5.20231793E-02                    1_GWF-(1,11430)
        102          3          2      0.26829051                    1_GWF-(1,26672)  9.46949352E-03                    1_GWF-(1,10651)
        103          3          3     -0.24482415                    1_GWF-(1,26672)  4.96684695E-02                    1_GWF-(1,11430)
        104          3          4      0.24934402                    1_GWF-(1,26350) -3.97287021E-02                    1_GWF-(1,11430)
        105          3          5     -0.31368270                    1_GWF-(1,20616)  1.19659148E-02                    1_GWF-(1,11430)
        106          3          6     -0.23554146                    1_GWF-(1,20609)  1.74397110E-02                    1_GWF-(1,11430)
        107          3          7     -0.19257322                    1_GWF-(1,26674) -2.72604752E-02                    1_GWF-(1,11430)
        108          3          8     -0.23527346                    1_GWF-(1,26663)  1.70159181E-02                    1_GWF-(1,11430)
        109          3          9      0.17737750                    1_GWF-(1,20700)  6.77371880E-03                    1_GWF-(1,10652)
        110          3         10      0.20848238                    1_GWF-(1,20699) -1.95384910E-02                    1_GWF-(1,11430)
        111          3         11      0.23150061                    1_GWF-(1,20596)  1.69180547E-02                    1_GWF-(1,11430)
        112          3         12     -0.24520008                    1_GWF-(1,26422)  5.25090744E-03                    1_GWF-(1,15221)
        113          3         13      0.20309015                    1_GWF-(1,26422) -8.78123309E-03                    1_GWF-(1,11430)
        114          3         14      0.22900389                    1_GWF-(1,26350)  1.30416666E-02                    1_GWF-(1,11430)
        115          3         15     -0.28038969                    1_GWF-(1,26350) -6.58961212E-03                    1_GWF-(1,11430)
        116          3         16     -0.27011608                    1_GWF-(1,26422) -5.96412622E-03                    1_GWF-(1,11430)
        117          3         17      0.22678679                    1_GWF-(1,20913)  1.21685534E-02                    1_GWF-(1,11430)
        118          3         18     -0.19466624                    1_GWF-(1,26672) -7.10822702E-03                    1_GWF-(1,11430)
        119          3         19      0.17340144                    1_GWF-(1,26672)  5.74144692E-03                    1_GWF-(1,14801)
        120          3         20     -0.18796447                    1_GWF-(1,20911)  7.29322241E-03                    1_GWF-(1,11430)
        121          3         21     -0.18814224                    1_GWF-(1,20914) -7.25619958E-03                    1_GWF-(1,11430)
        122          3         22     -0.18995799                    1_GWF-(1,20229)  5.24913208E-03                    1_GWF-(1,14800)
        123          3         23     -0.14113871                    1_GWF-(1,20571)  5.12335186E-03                    1_GWF-(1,14801)
        124          3         24      0.22100303                    1_GWF-(1,26486) -5.56352329E-03                    1_GWF-(1,11430)
        125          3         25      0.25605174                    1_GWF-(1,26487) -3.34089057E-03                    1_GWF-(1,15221)
        126          3         26      0.18973550                    1_GWF-(1,26486)  4.81921380E-03                    1_GWF-(1,11430)
        127          3         27      0.11620678                    1_GWF-(1,26422) -4.69159443E-03                    1_GWF-(1,11430)
        128          3         28     -0.18725269                    1_GWF-(1,26588)  6.16662251E-03                    1_GWF-(1,14801)
        129          3         29     -0.28207306                    1_GWF-(1,26543)  4.89142324E-03                    1_GWF-(1,14800)
        130          3         30     -0.23741512                    1_GWF-(1,26588) -2.92173653E-03                    1_GWF-(1,11430)
        131          3         31      0.17592937                    1_GWF-(1,26588)  4.76786084E-03                    1_GWF-(1,14801)
        132          3         32 -9.73519632E-02                    1_GWF-(1,26588)  6.38029092E-03                    1_GWF-(1,14800)
        133          3         33     -0.12136530                    1_GWF-(1,26422)  6.45205291E-03                    1_GWF-(1,14801)
        134          3         34      0.14368622                    1_GWF-(1,26622) -5.50502244E-03                    1_GWF-(1,14801)
        135          3         35     -0.12565642                    1_GWF-(1,26622)  3.15502898E-03                    1_GWF-(1,11430)
        136          3         36      0.12307099                    1_GWF-(1,26622) -3.31162956E-03                    1_GWF-(1,14800)
        137          3         37      0.11725635                    1_GWF-(1,26649) -5.19091749E-03                    1_GWF-(1,14801)
        138          3         38  9.55695822E-02                    1_GWF-(1,26622) -4.95725664E-03                    1_GWF-(1,14800)
        139          3         39 -8.57705889E-02                    1_GWF-(1,26666)  3.12132743E-03                    1_GWF-(1,14800)
        140          3         40     -0.14077929                    1_GWF-(1,26665) -1.66215604E-03                    1_GWF-(1,11430)
        141          3         41     -0.10511539                    1_GWF-(1,26666)  2.76998940E-03                    1_GWF-(1,14801)
        142          3         42     -0.10240076                    1_GWF-(1,26665) -5.45140435E-03                    1_GWF-(1,14801)
        143          3         43 -8.64888306E-02                    1_GWF-(1,26217) -6.57534295E-03                    1_GWF-(1,14800)
        144          3         44  8.50689117E-02                    1_GWF-(1,26588) -7.58751005E-03                    1_GWF-(1,14801)
        145          3         45  8.75968427E-02                    1_GWF-(1,26665) -8.54077404E-03                    1_GWF-(1,14800)
        146          3         46      0.11103319                    1_GWF-(1,26648) -1.08099672E-02                    1_GWF-(1,14801)
        147          3         47  8.52472757E-02                    1_GWF-(1,26218) -1.00151805E-02                    1_GWF-(1,14800)
        148          3         48  8.97144776E-02                    1_GWF-(1,26453) -9.61309839E-03                    1_GWF-(1,14801)
        149          3         49     -0.11465407                    1_GWF-(1,26648)  9.24642652E-03                    1_GWF-(1,14801)
        150          3         50     -0.12342062                    1_GWF-(1,26463) -9.96503077E-03                    1_GWF-(1,14801)
        151          4          1 -6.88259154E-02                    1_GWF-(1,26217) -7.92853523E-03                    1_GWF-(1,14800)
        152          4          2 -6.87458273E-02                    1_GWF-(1,26218) -9.17108052E-03                    1_GWF-(1,14801)
        153          4          3 -5.76932254E-02                    1_GWF-(1,26217) -8.46733787E-03                    1_GWF-(1,14800)
        154          4          4  6.52805276E-02                    1_GWF-(1,26607) -1.02192434E-02                    1_GWF-(1,14801)
        155          4          5 -6.28540444E-02                    1_GWF-(1,20226) -9.91839132E-03                    1_GWF-(1,14800)
        156          4          6 -7.18953831E-02                    1_GWF-(1,26218) -7.97136831E-03                    1_GWF-(1,14801)
        157          4          7 -6.26092117E-02                    1_GWF-(1,20211) -6.84128594E-03                    1_GWF-(1,14800)
        158          4          8 -5.40283422E-02                    1_GWF-(1,26665) -5.85217018E-03                    1_GWF-(1,14801)
        159          4          9 -6.00185876E-02                    1_GWF-(1,26666) -3.88489315E-03                    1_GWF-(1,14800)
        160          4         10  6.63875887E-02                    1_GWF-(1,26666) -1.85257378E-03                    1_GWF-(1,14801)
        161          4         11  9.57627496E-02                    1_GWF-(1,26665) -1.37521438E-03                    1_GWF-(1,14801)
        162          4         12  6.22085063E-02                    1_GWF-(1,26666) -4.11811355E-03                    1_GWF-(1,14800)
        163          4         13  5.49617678E-02                    1_GWF-(1,26649) -5.07059739E-03                    1_GWF-(1,14801)
        164          4         14  5.28101842E-02                    1_GWF-(1,26622) -4.14145436E-03                    1_GWF-(1,14800)
        165          4         15 -5.89416946E-02                    1_GWF-(1,26622) -1.87338995E-03                    1_GWF-(1,14801)
        166          4         16 -6.93837954E-02                    1_GWF-(1,26649) -2.43575350E-03                    1_GWF-(1,14801)
        167          4         17 -7.91924064E-02                    1_GWF-(1,26622)  4.11604069E-03                    1_GWF-(1,14801)
        168          4         18 -5.63636064E-02                    1_GWF-(1,26623)  5.09426787E-03                    1_GWF-(1,14800)
        169          4         19 -5.08343999E-02                    1_GWF-(1,26543)  4.95429186E-03                    1_GWF-(1,14801)
        170          4         20 -9.27016597E-02                    1_GWF-(1,26588)  2.43655503E-03                    1_GWF-(1,14800)
        171          4         21 -8.23430645E-02                    1_GWF-(1,26543)  1.60668690E-03                    1_GWF-(1,11430)
        172          4         22  8.78919192E-02                    1_GWF-(1,26543)  3.15877210E-03                    1_GWF-(1,14801)
        173          4         23  6.24761830E-02                    1_GWF-(1,26588) -3.91617706E-03                    1_GWF-(1,14801)
        174          4         24  4.73428052E-02                    1_GWF-(1,26486) -4.07216444E-03                    1_GWF-(1,14800)
        175          4         25  6.15083070E-02                    1_GWF-(1,26487) -2.71527354E-03                    1_GWF-(1,14801)
        176          4         26 -7.63511915E-02                    1_GWF-(1,26487) -1.33469402E-03                    1_GWF-(1,11430)
        177          4         27 -6.91211548E-02                    1_GWF-(1,26420)  3.65539226E-03                    1_GWF-(1,14801)
        178          4         28 -4.89525026E-02                    1_GWF-(1,26487)  4.77133544E-03                    1_GWF-(1,14800)
        179          4         29  5.10507006E-02                    1_GWF-(1,20229)  5.49529408E-03                    1_GWF-(1,14801)
        180          4         30  5.27497865E-02                    1_GWF-(1,20913)  5.41183470E-03                    1_GWF-(1,14800)
        181          4         31  4.64487762E-02                    1_GWF-(1,20911)  5.33428563E-03                    1_GWF-(1,14801)
        182          4         32 -4.36839940E-02                    1_GWF-(1,26672)  5.23066748E-03                    1_GWF-(1,14800)
        183          4         33 -4.92135114E-02                    1_GWF-(1,26665)  6.04390662E-03                    1_GWF-(1,14801)
        184          4         34 -4.65710941E-02                    1_GWF-(1,26422)  5.64763359E-03                    1_GWF-(1,14800)
        185          4         35 -5.59039750E-02                    1_GWF-(1,26350)  4.76467821E-03                    1_GWF-(1,14801)
        186          4         36 -6.32198988E-02                    1_GWF-(1,26422)  3.27261684E-03                    1_GWF-(1,14800)
        187          4         37 -6.28777839E-02                    1_GWF-(1,26350)  1.95306341E-03                    1_GWF-(1,14801)
        188          4         38 -6.04450093E-02                    1_GWF-(1,26422)  1.12289703E-03                    1_GWF-(1,10481)
        189          4         39 -5.36161101E-02                    1_GWF-(1,20587)  2.33176865E-03                    1_GWF-(1,14800)
        190          4         40 -4.94365725E-02                    1_GWF-(1,20592)  4.13513869E-03                    1_GWF-(1,14801)
        191          4         41 -4.87454170E-02                    1_GWF-(1,20606)  4.66247747E-03                    1_GWF-(1,14800)
        192          4         42  3.52798339E-02                    1_GWF-(1,26544)  5.20001387E-03                    1_GWF-(1,14801)
        193          4         43  4.19493285E-02                    1_GWF-(1,26421)  5.57266576E-03                    1_GWF-(1,14800)
        194          4         44  3.78032376E-02                    1_GWF-(1,26348)  5.93654737E-03                    1_GWF-(1,14801)
        195          4         45  5.19945920E-02                    1_GWF-(1,26218)  5.46212336E-03                    1_GWF-(1,14800)
        196          4         46  3.90034376E-02                    1_GWF-(1,20618)  5.75384743E-03                    1_GWF-(1,14801)
        197          4         47  3.34388267E-02                    1_GWF-(1,20738)  5.34386648E-03                    1_GWF-(1,14800)
        198          4         48  2.54386087E-02                    1_GWF-(1,26397)  4.63202385E-03                    1_GWF-(1,14801)
        199          4         49 -2.45289899E-02                    1_GWF-(1,26217)  3.48662458E-03                    1_GWF-(1,14800)
        200          4         50 -3.07809976E-02                    1_GWF-(1,26218)  3.36737256E-03                    1_GWF-(1,14801)
        201          5          1 -1.36172439E-02                    1_GWF-(1,26217)  3.06724406E-03                    1_GWF-(1,14800)
        202          5          2 -2.15978502E-02                    1_GWF-(1,26218)  3.98381829E-03                    1_GWF-(1,14801)
        203          5          3 -2.01970170E-02                    1_GWF-(1,26397)  4.40866227E-03                    1_GWF-(1,14800)
        204          5          4 -2.09027339E-02                    1_GWF-(1,20738)  4.75070316E-03                    1_GWF-(1,14801)
        205          5          5 -2.70359560E-02                    1_GWF-(1,20706)  4.40711885E-03                    1_GWF-(1,14800)
        206          5          6 -3.11486053E-02                    1_GWF-(1,26218)  4.28789679E-03                    1_GWF-(1,14801)
        207          5          7 -2.36223705E-02                    1_GWF-(1,26217)  3.78269523E-03                    1_GWF-(1,14800)
        208          5          8 -2.24420242E-02                    1_GWF-(1,26421)  3.44187884E-03                    1_GWF-(1,14801)
        209          5          9  2.07799250E-02                    1_GWF-(1,20708)  2.98281550E-03                    1_GWF-(1,14800)
        210          5         10  2.55962735E-02                    1_GWF-(1,20614)  2.70672659E-03                    1_GWF-(1,14801)
        211          5         11  2.51649998E-02                    1_GWF-(1,20600)  1.82877532E-03                    1_GWF-(1,14800)
        212          5         12  2.46513792E-02                    1_GWF-(1,26350)  1.05778457E-03                    1_GWF-(1,15941)
        213          5         13  3.50842806E-02                    1_GWF-(1,26422) -1.06167449E-03                    1_GWF-(1,11430)
        214          5         14  3.48194883E-02                    1_GWF-(1,26350)  1.03977595E-03                    1_GWF-(1,11430)
        215          5         15  3.09114319E-02                    1_GWF-(1,26422)  1.69264049E-03                    1_GWF-(1,14801)
        216          5         16  2.59054523E-02                    1_GWF-(1,26350)  2.02657222E-03                    1_GWF-(1,14800)
        217          5         17  2.11718760E-02                    1_GWF-(1,26422)  2.26653904E-03                    1_GWF-(1,14801)
        218          5         18 -1.42825582E-02                    1_GWF-(1,26422)  2.14725899E-03                    1_GWF-(1,14800)
        219          5         19 -1.62355422E-02                    1_GWF-(1,26350)  2.15787122E-03                    1_GWF-(1,14801)
        220          5         20 -1.82275359E-02                    1_GWF-(1,20911)  1.90651521E-03                    1_GWF-(1,14800)
        221          5         21 -2.23339135E-02                    1_GWF-(1,26420)  1.54229661E-03                    1_GWF-(1,14801)
        222          5         22 -2.49463111E-02                    1_GWF-(1,26487)  7.12019550E-04                    1_GWF-(1,14800)
        223          5         23 -2.52411770E-02                    1_GWF-(1,26486)  7.41160652E-04                    1_GWF-(1,14800)
        224          5         24  1.91672958E-02                    1_GWF-(1,26486)  1.38104160E-03                    1_GWF-(1,14801)
        225          5         25  1.45132278E-02                    1_GWF-(1,20216) -1.49931445E-03                    1_GWF-(1,14801)
        226          5         26  1.13671023E-02                    1_GWF-(1,20216) -1.31475071E-03                    1_GWF-(1,14800)
        227          5         27  1.04597940E-02                    1_GWF-(1,26588)  1.00510927E-03                    1_GWF-(1,14800)
        228          5         28 -1.67485995E-02                    1_GWF-(1,26588)  6.43546467E-04                    1_GWF-(1,14801)
        229          5         29 -1.96679542E-02                    1_GWF-(1,26543)  5.55678024E-04                    1_GWF-(1,11430)
        230          5         30 -1.52397356E-02                    1_GWF-(1,26588)  7.31226708E-04                    1_GWF-(1,14800)
        231          5         31  1.48547049E-02                    1_GWF-(1,26588)  1.00588297E-03                    1_GWF-(1,14801)
        232          5         32  9.57746735E-03                    1_GWF-(1,26622)  8.00944877E-04                    1_GWF-(1,14800)
        233          5         33  1.43337456E-02                    1_GWF-(1,26623)  4.59941417E-04                    1_GWF-(1,14801)
        234          5         34  2.00483951E-02                    1_GWF-(1,26622) -5.03491142E-04                    1_GWF-(1,11430)
        235          5         35  1.53995149E-02                    1_GWF-(1,26543) -6.82160030E-04                    1_GWF-(1,14801)
        236          5         36  1.13808410E-02                    1_GWF-(1,26588) -8.04233220E-04                    1_GWF-(1,14800)
        237          5         37  8.24747600E-03                    1_GWF-(1,26665) -8.21224050E-04                    1_GWF-(1,14801)
        238          5         38  1.10625169E-02                    1_GWF-(1,26663) -6.37023105E-04                    1_GWF-(1,14800)
        239          5         39 -1.13368327E-02                    1_GWF-(1,26666)  2.82703856E-04                    1_GWF-(1,11514)
        240          5         40 -1.56134830E-02                    1_GWF-(1,26665) -3.80978679E-04                    1_GWF-(1,11430)
        241          5         41 -1.07564092E-02                    1_GWF-(1,26666) -5.32005031E-04                    1_GWF-(1,14800)
        242          5         42 -8.05385820E-03                    1_GWF-(1,26665) -8.57560288E-04                    1_GWF-(1,14801)
        243          5         43 -1.00622908E-02                    1_GWF-(1,26217) -9.67954555E-04                    1_GWF-(1,14800)
        244          5         44  7.58655432E-03                    1_GWF-(1,20215) -1.10617154E-03                    1_GWF-(1,14801)
        245          5         45  7.39006151E-03                    1_GWF-(1,26665) -1.37251008E-03                    1_GWF-(1,14800)
        246          5         46  8.04941870E-03                    1_GWF-(1,26666) -1.44245259E-03                    1_GWF-(1,14801)
        247          5         47  7.96340430E-03                    1_GWF-(1,26218) -1.15978599E-03                    1_GWF-(1,14800)
        248          5         48  1.06381801E-02                    1_GWF-(1,26217) -1.21841464E-03                    1_GWF-(1,14801)
        249          5         49  1.20442825E-02                    1_GWF-(1,26218) -1.05241642E-03                    1_GWF-(1,14800)
        250          5         50  9.61973145E-03                    1_GWF-(1,26217) -1.10563645E-03                    1_GWF-(1,14801)
        251          6          1 -9.07474513E-03                    1_GWF-(1,26217) -9.53080255E-04                    1_GWF-(1,14800)
        252          6          2 -1.00516057E-02                    1_GWF-(1,26218) -1.04609396E-03                    1_GWF-(1,14801)
        253          6          3 -8.54959994E-03                    1_GWF-(1,26217) -9.48874679E-04                    1_GWF-(1,14800)
        254          6          4  6.95956473E-03                    1_GWF-(1,26217) -1.18339147E-03                    1_GWF-(1,14801)
        255          6          5 -6.25391058E-03                    1_GWF-(1,20232) -1.14509009E-03                    1_GWF-(1,14800)
        256          6          6 -6.86516803E-03                    1_GWF-(1,26218) -8.78714990E-04                    1_GWF-(1,14801)
        257          6          7 -5.75194726E-03                    1_GWF-(1,20215) -7.40261287E-04                    1_GWF-(1,14800)
        258          6          8  5.81848114E-03                    1_GWF-(1,26217) -6.36160351E-04                    1_GWF-(1,14801)
        259          6          9 -5.75980358E-03                    1_GWF-(1,26666) -4.05500175E-04                    1_GWF-(1,14800)
        260          6         10  6.59737737E-03                    1_GWF-(1,26666) -2.97692405E-04                    1_GWF-(1,11430)
        261          6         11  9.69514798E-03                    1_GWF-(1,26665)  1.56615506E-04                    1_GWF-(1,11430)
        262          6         12 -7.23814229E-03                    1_GWF-(1,26665) -3.93297972E-04                    1_GWF-(1,14800)
        263          6         13 -6.81642194E-03                    1_GWF-(1,26666) -5.03196821E-04                    1_GWF-(1,14801)
        264          6         14 -4.40411166E-03                    1_GWF-(1,26665) -5.01306642E-04                    1_GWF-(1,14800)
        265          6         15  6.19009229E-03                    1_GWF-(1,26649) -4.13010747E-04                    1_GWF-(1,14801)
        266          6         16 -7.71824316E-03                    1_GWF-(1,26649) -3.27445355E-04                    1_GWF-(1,11430)
        267          6         17 -1.00353770E-02                    1_GWF-(1,26622)  2.37962115E-04                    1_GWF-(1,14801)
        268          6         18 -7.24613092E-03                    1_GWF-(1,26623)  4.47117867E-04                    1_GWF-(1,14800)
        269          6         19  6.63239276E-03                    1_GWF-(1,26623)  5.52855105E-04                    1_GWF-(1,14801)
        270          6         20 -6.81438016E-03                    1_GWF-(1,26588)  3.83997306E-04                    1_GWF-(1,14800)
        271          6         21 -7.21416624E-03                    1_GWF-(1,26589)  3.10080890E-04                    1_GWF-(1,11430)
        272          6         22  7.90793065E-03                    1_GWF-(1,26543) -2.50411466E-04                    1_GWF-(1,11430)
        273          6         23  7.09399780E-03                    1_GWF-(1,26588) -4.30864115E-04                    1_GWF-(1,14801)
        274          6         24 -4.78029656E-03                    1_GWF-(1,26588) -5.53658412E-04                    1_GWF-(1,14800)
        275          6         25  4.64985329E-03                    1_GWF-(1,26588) -5.96727066E-04                    1_GWF-(1,14801)
        276          6         26  8.10627952E-03                    1_GWF-(1,26543)  5.96772759E-04                    1_GWF-(1,14801)
        277          6         27  7.25917423E-03                    1_GWF-(1,26544)  3.37758369E-04                    1_GWF-(1,14800)
        278          6         28  8.92386458E-03                    1_GWF-(1,26486)  2.17780092E-04                    1_GWF-(1,14800)
        279          6         29  8.25902075E-03                    1_GWF-(1,26487)  5.22213220E-04                    1_GWF-(1,14801)
        280          6         30  6.58696945E-03                    1_GWF-(1,26420)  6.16584057E-04                    1_GWF-(1,14800)
        281          6         31  4.55795949E-03                    1_GWF-(1,20911)  6.44686247E-04                    1_GWF-(1,14801)
        282          6         32 -4.71026091E-03                    1_GWF-(1,26672)  5.93800031E-04                    1_GWF-(1,14800)
        283          6         33 -4.41688442E-03                    1_GWF-(1,26665)  5.90102680E-04                    1_GWF-(1,14801)
        284          6         34 -5.26128202E-03                    1_GWF-(1,26422)  5.17931137E-04                    1_GWF-(1,14800)
        285          6         35 -6.74067220E-03                    1_GWF-(1,26350)  4.42161807E-04                    1_GWF-(1,14801)
        286          6         36 -7.86112507E-03                    1_GWF-(1,26422)  2.94332826E-04                    1_GWF-(1,14800)
        287          6         37 -8.52430947E-03                    1_GWF-(1,26350) -3.08296702E-04                    1_GWF-(1,11430)
        288          6         38 -8.32582687E-03                    1_GWF-(1,26422)  2.31731416E-04                    1_GWF-(1,15941)
        289          6         39 -6.25218433E-03                    1_GWF-(1,20590)  3.01731815E-04                    1_GWF-(1,14800)
        290          6         40 -5.79789913E-03                    1_GWF-(1,20592)  4.57539463E-04                    1_GWF-(1,14801)
        291          6         41 -5.53664128E-03                    1_GWF-(1,20612)  4.92575659E-04                    1_GWF-(1,14800)
        292          6         42  3.83977642E-03                    1_GWF-(1,26420)  5.46108216E-04                    1_GWF-(1,14801)
        293          6         43  5.26360158E-03                    1_GWF-(1,26421)  5.66952274E-04                    1_GWF-(1,14800)
        294          6         44  4.61264976E-03                    1_GWF-(1,26348)  5.98595194E-04                    1_GWF-(1,14801)
        295          6         45  5.01168306E-03                    1_GWF-(1,26218)  5.68178680E-04                    1_GWF-(1,14800)
        296          6         46  3.93063960E-03                    1_GWF-(1,20618)  6.05435590E-04                    1_GWF-(1,14801)
        297          6         47  3.07135319E-03                    1_GWF-(1,20738)  5.60195608E-04                    1_GWF-(1,14800)
        298          6         48  2.69268105E-03                    1_GWF-(1,26397)  4.96211050E-04                    1_GWF-(1,14801)
        299          6         49 -2.36197201E-03                    1_GWF-(1,26419)  3.79682526E-04                    1_GWF-(1,14800)
        300          6         50 -2.35992825E-03                    1_GWF-(1,26218)  3.79175866E-04                    1_GWF-(1,14801)
        301          7          1 -1.53587994E-03                    1_GWF-(1,26217) -3.56019497E-04                    1_GWF-(1,14801)
        302          7          2 -2.48829966E-03                    1_GWF-(1,26218)  4.41875238E-04                    1_GWF-(1,14801)
        303          7          3 -2.46761955E-03                    1_GWF-(1,26589)  4.87794336E-04                    1_GWF-(1,14800)
        304          7          4 -2.57452669E-03                    1_GWF-(1,26486)  5.19156504E-04                    1_GWF-(1,14801)
        305          7          5 -2.78363688E-03                    1_GWF-(1,26544)  4.85767741E-04                    1_GWF-(1,14800)
        306          7          6 -3.50870330E-03                    1_GWF-(1,26218)  4.94228278E-04                    1_GWF-(1,14801)
        307          7          7 -2.88053490E-03                    1_GWF-(1,26217)  4.47121378E-04                    1_GWF-(1,14800)
        308          7          8 -3.00993123E-03                    1_GWF-(1,26421)  4.07163038E-04                    1_GWF-(1,14801)
        309          7          9  2.27030847E-03                    1_GWF-(1,20708)  3.51528200E-04                    1_GWF-(1,14800)
        310          7         10  2.89872898E-03                    1_GWF-(1,20614)  3.18030073E-04                    1_GWF-(1,14801)
        311          7         11  2.87081059E-03                    1_GWF-(1,20605)  2.11338337E-04                    1_GWF-(1,14800)
        312          7         12  3.10889622E-03                    1_GWF-(1,26544)  1.22796162E-04                    1_GWF-(1,15941)
        313          7         13  4.29237087E-03                    1_GWF-(1,26422) -1.47627938E-04                    1_GWF-(1,11430)
        314          7         14  4.25563413E-03                    1_GWF-(1,26350)  1.48829894E-04                    1_GWF-(1,11430)
        315          7         15  3.76606833E-03                    1_GWF-(1,26422)  1.94084053E-04                    1_GWF-(1,14801)
        316          7         16  3.08094932E-03                    1_GWF-(1,26350)  2.17688705E-04                    1_GWF-(1,14800)
        317          7         17  2.76500819E-03                    1_GWF-(1,26486)  2.13918214E-04                    1_GWF-(1,14801)
        318          7         18  2.20215771E-03                    1_GWF-(1,26544)  1.24499915E-04                    1_GWF-(1,14800)
        319          7         19  2.82940847E-03                    1_GWF-(1,26622) -1.18653543E-04                    1_GWF-(1,11430)
        320          7         20  2.71080774E-03                    1_GWF-(1,26623)  1.84480275E-04                    1_GWF-(1,14801)
        321          7         21 -2.26420474E-03                    1_GWF-(1,26422)  2.16095573E-04                    1_GWF-(1,14800)
        322          7         22 -2.00117468E-03                    1_GWF-(1,20229)  2.22689155E-04                    1_GWF-(1,14801)
        323          7         23 -1.48263777E-03                    1_GWF-(1,26422)  2.22716042E-04                    1_GWF-(1,14800)
        324          7         24 -1.29570037E-03                    1_GWF-(1,22914)  2.12604248E-04                    1_GWF-(1,14801)
        325          7         25  1.64939477E-03                    1_GWF-(1,20218) -1.80794363E-04                    1_GWF-(1,14801)
        326          7         26  1.14140341E-03                    1_GWF-(1,20216) -1.50346406E-04                    1_GWF-(1,14800)
        327          7         27  1.02558039E-03                    1_GWF-(1,26350) -1.10617985E-04                    1_GWF-(1,14801)
        328          7         28  1.42176690E-03                    1_GWF-(1,26487) -5.78286033E-05                    1_GWF-(1,14800)
        329          7         29 -1.86349722E-03                    1_GWF-(1,26487)  8.32170384E-05                    1_GWF-(1,11430)
        330          7         30  1.85126831E-03                    1_GWF-(1,26487)  9.15885170E-05                    1_GWF-(1,14800)
        331          7         31 -1.71010140E-03                    1_GWF-(1,26487)  1.16731550E-04                    1_GWF-(1,14801)
        332          7         32  1.14865780E-03                    1_GWF-(1,26648)  8.78656569E-05                    1_GWF-(1,14800)
        333          7         33  1.46820395E-03                    1_GWF-(1,26649)  4.86977222E-05                    1_GWF-(1,14801)
        334          7         34  1.88984429E-03                    1_GWF-(1,26622) -6.19604123E-05                    1_GWF-(1,11430)
        335          7         35  1.82737625E-03                    1_GWF-(1,26543) -7.31920401E-05                    1_GWF-(1,14801)
        336          7         36  1.41111677E-03                    1_GWF-(1,26588) -8.87522779E-05                    1_GWF-(1,14800)
        337          7         37 -9.73569040E-04                    1_GWF-(1,26588) -9.09021949E-05                    1_GWF-(1,14801)
        338          7         38  1.13844480E-03                    1_GWF-(1,26663) -7.39837578E-05                    1_GWF-(1,14800)
        339          7         39 -1.23981314E-03                    1_GWF-(1,26666) -3.64425171E-05                    1_GWF-(1,14801)
        340          7         40 -1.64990770E-03                    1_GWF-(1,26665) -5.05289204E-05                    1_GWF-(1,11430)
        341          7         41  1.14146231E-03                    1_GWF-(1,26665) -5.78592497E-05                    1_GWF-(1,14800)
        342          7         42  8.94443083E-04                    1_GWF-(1,26666) -9.40386426E-05                    1_GWF-(1,14801)
        343          7         43 -1.05944908E-03                    1_GWF-(1,26217) -1.05378249E-04                    1_GWF-(1,14800)
        344          7         44  9.69140488E-04                    1_GWF-(1,20216) -1.18970736E-04                    1_GWF-(1,14801)
        345          7         45  9.72048036E-04                    1_GWF-(1,20917) -1.44551922E-04                    1_GWF-(1,14800)
        346          7         46  8.20695296E-04                    1_GWF-(1,20232) -1.46794578E-04                    1_GWF-(1,14801)
        347          7         47  8.51783356E-04                    1_GWF-(1,26218) -1.16129196E-04                    1_GWF-(1,14800)
        348          7         48  1.27354972E-03                    1_GWF-(1,26217) -1.26439215E-04                    1_GWF-(1,14801)
        349          7         49  1.42571741E-03                    1_GWF-(1,26218) -1.14883551E-04                    1_GWF-(1,14800)
        350          7         50  1.16610760E-03                    1_GWF-(1,26217) -1.24346423E-04                    1_GWF-(1,14801)
        351          8          1 -5.35973922E-03                    1_GWF-(1,11439) -8.41267553E-05                    1_GWF-(1,14800)
        352          8          2 -1.95151539E-03                    1_GWF-(1,11440) -1.19112596E-04                    1_GWF-(1,14801)
        353          8          3  2.45926252E-03                    1_GWF-(1,11439)  1.10780205E-04                    1_GWF-(1,14801)
        354          8          4 -1.71271619E-03                    1_GWF-(1,11439) -1.30727578E-04                    1_GWF-(1,14801)
        355          8          5 -2.33184341E-03                    1_GWF-(1,11440) -1.18515430E-04                    1_GWF-(1,14800)
        356          8          6  1.82311569E-03                    1_GWF-(1,11440) -9.87658616E-05                    1_GWF-(1,14801)
        357          8          7  1.00373419E-03                    1_GWF-(1,11441) -8.95343636E-05                    1_GWF-(1,14800)
        358          8          8 -7.89729170E-04                    1_GWF-(1,11440) -8.60564386E-05                    1_GWF-(1,14801)
        359          8          9  1.03928707E-03                    1_GWF-(1,11440) -5.12639043E-05                    1_GWF-(1,14800)
        360          8         10  7.89860072E-04                    1_GWF-(1,11482) -2.79785303E-05                    1_GWF-(1,11430)
        361          8         11  1.05665057E-03                    1_GWF-(1,26665) -1.70521340E-05                    1_GWF-(1,15940)
        362          8         12 -8.88612070E-04                    1_GWF-(1,26665) -4.05728916E-05                    1_GWF-(1,14800)
        363          8         13 -7.34075838E-04                    1_GWF-(1,26666) -5.67485702E-05                    1_GWF-(1,14801)
        364          8         14 -6.69051266E-04                    1_GWF-(1,15759) -6.29862865E-05                    1_GWF-(1,14800)
        365          8         15 -7.60367182E-04                    1_GWF-(1,26350) -5.33042534E-05                    1_GWF-(1,14801)
        366          8         16  7.94669966E-04                    1_GWF-(1,26622) -3.81544091E-05                    1_GWF-(1,11430)
        367          8         17 -1.08022979E-03                    1_GWF-(1,26622)  2.49358402E-05                    1_GWF-(1,14801)
        368          8         18 -9.09921246E-04                    1_GWF-(1,26649)  4.95716475E-05                    1_GWF-(1,14800)
        369          8         19 -7.86172552E-04                    1_GWF-(1,26622)  6.53815042E-05                    1_GWF-(1,14801)
        370          8         20 -7.57201498E-04                    1_GWF-(1,26588)  5.11847478E-05                    1_GWF-(1,14800)
        371          8         21 -8.31262974E-04                    1_GWF-(1,26589)  2.90485886E-05                    1_GWF-(1,11430)
        372          8         22  8.44258483E-04                    1_GWF-(1,26543) -3.81664321E-05                    1_GWF-(1,11430)
        373          8         23  8.71299788E-04                    1_GWF-(1,26588) -5.13699872E-05                    1_GWF-(1,14801)
        374          8         24 -5.43528445E-04                    1_GWF-(1,11438) -6.62415383E-05                    1_GWF-(1,14800)
        375          8         25  5.77527420E-04                    1_GWF-(1,11439)  7.30891565E-05                    1_GWF-(1,14800)
        376          8         26  9.06988045E-04                    1_GWF-(1,26543)  7.52345278E-05                    1_GWF-(1,14801)
        377          8         27  8.17370912E-04                    1_GWF-(1,26544)  5.09417406E-05                    1_GWF-(1,14800)
        378          8         28  9.99752963E-04                    1_GWF-(1,26486) -3.03008524E-05                    1_GWF-(1,11430)
        379          8         29  9.78448857E-04                    1_GWF-(1,26487)  5.43017213E-05                    1_GWF-(1,14801)
        380          8         30  8.27740208E-04                    1_GWF-(1,26420)  7.55478084E-05                    1_GWF-(1,14800)
        381          8         31  5.69340135E-04                    1_GWF-(1,26487)  8.16821668E-05                    1_GWF-(1,14801)
        382          8         32 -5.70140656E-04                    1_GWF-(1,26623)  7.13473558E-05                    1_GWF-(1,14800)
        383          8         33 -4.43175246E-04                    1_GWF-(1,26665)  6.77826232E-05                    1_GWF-(1,14801)
        384          8         34 -5.57597048E-04                    1_GWF-(1,26486)  6.03488450E-05                    1_GWF-(1,14800)
        385          8         35 -7.88983215E-04                    1_GWF-(1,26350)  5.32418065E-05                    1_GWF-(1,14801)
        386          8         36 -9.73899871E-04                    1_GWF-(1,26422)  3.60223295E-05                    1_GWF-(1,14800)
        387          8         37 -1.03278326E-03                    1_GWF-(1,26350) -4.08595028E-05                    1_GWF-(1,11430)
        388          8         38 -1.01856629E-03                    1_GWF-(1,26422)  2.59371449E-05                    1_GWF-(1,15941)
        389          8         39 -7.45208795E-04                    1_GWF-(1,26350)  3.36553736E-05                    1_GWF-(1,14800)
        390          8         40 -6.17937896E-04                    1_GWF-(1,20592)  5.14959576E-05                    1_GWF-(1,14801)
        391          8         41 -5.92572401E-04                    1_GWF-(1,20614)  5.79748595E-05                    1_GWF-(1,14800)
        392          8         42  4.98151879E-04                    1_GWF-(1,26350)  6.31208592E-05                    1_GWF-(1,14801)
        393          8         43  6.28469947E-04                    1_GWF-(1,26421)  6.44954365E-05                    1_GWF-(1,14800)
        394          8         44  5.48657959E-04                    1_GWF-(1,26350)  6.93112940E-05                    1_GWF-(1,14801)
        395          8         45  5.24575471E-04                    1_GWF-(1,26218)  6.38474145E-05                    1_GWF-(1,14800)
        396          8         46 -3.95051253E-04                    1_GWF-(1,20973)  6.37668079E-05                    1_GWF-(1,14801)
        397          8         47  3.38502209E-04                    1_GWF-(1,26486)  5.86745665E-05                    1_GWF-(1,14800)
        398          8         48  2.94766796E-04                    1_GWF-(1,26398)  5.52849827E-05                    1_GWF-(1,14801)
        399          8         49  2.69325690E-04                    1_GWF-(1,26588)  4.32085937E-05                    1_GWF-(1,14800)
        400          8         50  2.10959383E-04                    1_GWF-(1,15765) -4.25278146E-05                    1_GWF-(1,14800)
        401          9          1 -1.01503396E-03                    1_GWF-(1,11428)  3.97723366E-05                    1_GWF-(1,14800)
        402          9          2  2.73998658E-04                    1_GWF-(1,21261)  5.21963747E-05                    1_GWF-(1,14801)
        403          9          3  6.12000242E-04                    1_GWF-(1,11428)  5.53862792E-05                    1_GWF-(1,14800)
        404          9          4 -7.85796958E-04                    1_GWF-(1,11428)  5.21213723E-05                    1_GWF-(1,14801)
        405          9          5  3.77516989E-04                    1_GWF-(1,11428)  5.50979176E-05                    1_GWF-(1,14800)
        406          9          6 -3.96813454E-04                    1_GWF-(1,26218)  6.12219342E-05                    1_GWF-(1,14801)
        407          9          7 -5.47375749E-04                    1_GWF-(1,11428)  5.18298196E-05                    1_GWF-(1,14800)
        408          9          8  4.44565580E-04                    1_GWF-(1,11428)  4.42821426E-05                    1_GWF-(1,14801)
        409          9          9  2.53721406E-04                    1_GWF-(1,20708)  4.10309451E-05                    1_GWF-(1,14800)
        410          9         10 -3.51138119E-04                    1_GWF-(1,11428)  3.21255712E-05                    1_GWF-(1,14801)
        411          9         11  4.21267661E-04                    1_GWF-(1,26486)  1.59259894E-05                    1_GWF-(1,10650)
        412          9         12  3.70544171E-04                    1_GWF-(1,26544)  2.26103762E-05                    1_GWF-(1,14800)
        413          9         13  3.59991771E-04                    1_GWF-(1,26543)  2.67747959E-05                    1_GWF-(1,14801)
        414          9         14  4.17938111E-04                    1_GWF-(1,26422)  1.92278013E-05                    1_GWF-(1,14800)
        415          9         15  4.23605991E-04                    1_GWF-(1,26350) -1.41401881E-05                    1_GWF-(1,15940)
        416          9         16  4.54523291E-04                    1_GWF-(1,26422)  1.01137202E-05                    1_GWF-(1,15940)
        417          9         17  3.78511807E-04                    1_GWF-(1,26350)  1.26220669E-05                    1_GWF-(1,14800)
        418          9         18  2.54474514E-04                    1_GWF-(1,26422)  2.15637855E-05                    1_GWF-(1,14801)
        419          9         19 -3.10468906E-04                    1_GWF-(1,26422)  2.66096283E-05                    1_GWF-(1,14800)
        420          9         20 -2.81136447E-04                    1_GWF-(1,26350)  2.72384846E-05                    1_GWF-(1,14801)
        421          9         21 -2.43988821E-04                    1_GWF-(1,26422)  2.20249664E-05                    1_GWF-(1,14800)
        422          9         22 -2.53941946E-04                    1_GWF-(1,26420)  1.06444637E-05                    1_GWF-(1,14801)
        423          9         23 -2.37825806E-04                    1_GWF-(1,26487)  1.19122691E-05                    1_GWF-(1,14801)
        424          9         24 -2.74665093E-04                    1_GWF-(1,26486)  2.23130348E-05                    1_GWF-(1,14800)
        425          9         25 -2.27552800E-04                    1_GWF-(1,26544)  2.23911300E-05                    1_GWF-(1,14801)
        426          9         26  1.77287909E-04                    1_GWF-(1,15748) -2.17914404E-05                    1_GWF-(1,14801)
        427          9         27 -1.38967731E-04                    1_GWF-(1,26487) -1.86430457E-05                    1_GWF-(1,14800)
        428          9         28 -1.74505085E-04                    1_GWF-(1,26588) -1.25918191E-05                    1_GWF-(1,14801)
        429          9         29 -2.11383816E-04                    1_GWF-(1,26543) -3.62700468E-06                    1_GWF-(1,11514)
        430          9         30 -1.92898701E-04                    1_GWF-(1,26588)  9.58713004E-06                    1_GWF-(1,14801)
        431          9         31  2.39615496E-04                    1_GWF-(1,26588)  1.52041654E-05                    1_GWF-(1,14800)
        432          9         32  1.68934508E-04                    1_GWF-(1,26543)  1.61290542E-05                    1_GWF-(1,14801)
        433          9         33  8.54654017E-05                    1_GWF-(1,15748)  1.38137054E-05                    1_GWF-(1,14800)
        434          9         34  1.03640684E-04                    1_GWF-(1,20914)  1.28254375E-05                    1_GWF-(1,14801)
        435          9         35 -1.11688914E-04                    1_GWF-(1,15751) -1.41386620E-05                    1_GWF-(1,14801)
        436          9         36  1.28800976E-04                    1_GWF-(1,26218) -1.32141006E-05                    1_GWF-(1,14800)
        437          9         37 -1.06197028E-04                    1_GWF-(1,20556) -1.18933210E-05                    1_GWF-(1,14801)
        438          9         38 -1.30178410E-04                    1_GWF-(1,20229) -1.04244742E-05                    1_GWF-(1,14800)
        439          9         39 -1.13849170E-04                    1_GWF-(1,26663) -8.67069996E-06                    1_GWF-(1,14801)
        440          9         40 -1.43534009E-04                    1_GWF-(1,26665) -3.85921480E-06                    1_GWF-(1,10652)
        441          9         41  1.27136793E-04                    1_GWF-(1,26665) -3.38766650E-06                    1_GWF-(1,10650)
        442          9         42  1.20698705E-04                    1_GWF-(1,26666) -9.34419306E-06                    1_GWF-(1,14801)
        443          9         43  1.04510430E-04                    1_GWF-(1,26622) -1.17382004E-05                    1_GWF-(1,14800)
        444          9         44  1.16796498E-04                    1_GWF-(1,20216) -1.32296175E-05                    1_GWF-(1,14801)
        445          9         45  1.16955492E-04                    1_GWF-(1,20917) -1.55903206E-05                    1_GWF-(1,14800)
        446          9         46  1.46647671E-04                    1_GWF-(1,11440) -1.62610836E-05                    1_GWF-(1,14801)
        447          9         47  1.32220451E-04                    1_GWF-(1,11439)  1.34993081E-05                    1_GWF-(1,14801)
        448          9         48 -1.83415366E-04                    1_GWF-(1,11439) -1.42489481E-05                    1_GWF-(1,14801)
        449          9         49  1.54173360E-04                    1_GWF-(1,26218) -1.11223254E-05                    1_GWF-(1,14800)
        450          9         50  2.82201271E-04                    1_GWF-(1,11439) -1.29960122E-05                    1_GWF-(1,14801)
        451         10          1 -2.84631190E-04                    1_GWF-(1,11439) -1.00842736E-05                    1_GWF-(1,14800)
        452         10          2 -1.25124180E-04                    1_GWF-(1,26218) -9.86991276E-06                    1_GWF-(1,14801)
        453         10          3  1.66612827E-04                    1_GWF-(1,11439)  3.60018758E-06                    1_GWF-(1,14801)
        454         10          4  1.26516279E-04                    1_GWF-(1,26543) -4.38104789E-06                    1_GWF-(1,14800)
        455         10          5 -1.20243228E-04                    1_GWF-(1,11440) -1.04910409E-05                    1_GWF-(1,14801)
        456         10          6 -9.31307781E-05                    1_GWF-(1,20232) -1.17118586E-05                    1_GWF-(1,14800)
        457         10          7  1.05390723E-04                    1_GWF-(1,11440) -1.14261171E-05                    1_GWF-(1,14801)
        458         10          8  1.02712602E-04                    1_GWF-(1,26218) -1.03469649E-05                    1_GWF-(1,14800)
        459         10          9  1.00640431E-04                    1_GWF-(1,26217) -9.95076066E-06                    1_GWF-(1,14801)
        460         10         10  6.95181577E-05                    1_GWF-(1,26218) -8.99927532E-06                    1_GWF-(1,14800)
        461         10         11  5.55176217E-05                    1_GWF-(1,19945) -7.52168861E-06                    1_GWF-(1,14801)
        462         10         12 -8.10105456E-05                    1_GWF-(1,11482) -5.30343502E-06                    1_GWF-(1,14800)
        463         10         13 -8.09131269E-05                    1_GWF-(1,26674)  2.20556891E-06                     1_GWF-(1,9291)
        464         10         14  1.02457153E-04                    1_GWF-(1,26622) -3.25392202E-06                    1_GWF-(1,14801)
        465         10         15  9.99795462E-05                    1_GWF-(1,26649) -6.48427135E-06                    1_GWF-(1,14800)
        466         10         16  8.59154703E-05                    1_GWF-(1,26622) -7.00308977E-06                    1_GWF-(1,14801)
        467         10         17 -9.43784227E-05                    1_GWF-(1,26487)  4.22244217E-06                    1_GWF-(1,14801)
        468         10         18 -1.07054685E-04                    1_GWF-(1,26665)  1.59995979E-06                    1_GWF-(1,15940)
        469         10         19 -1.07986300E-04                    1_GWF-(1,26666)  5.31891855E-06                    1_GWF-(1,14800)
        470         10         20 -1.04727961E-04                    1_GWF-(1,26665)  7.64297447E-06                    1_GWF-(1,14801)
        471         10         21  6.78206526E-05                    1_GWF-(1,26217) -8.90124670E-06                    1_GWF-(1,14801)
        472         10         22  6.25080677E-05                    1_GWF-(1,11439) -9.29861975E-06                    1_GWF-(1,14800)
        473         10         23 -5.65990342E-05                    1_GWF-(1,15755) -8.57038478E-06                    1_GWF-(1,14801)
        474         10         24  5.03868030E-05                    1_GWF-(1,26623)  8.70177277E-06                    1_GWF-(1,14801)
        475         10         25 -6.59154312E-05                    1_GWF-(1,11428)  9.75876864E-06                    1_GWF-(1,14800)
        476         10         26  8.69847085E-05                    1_GWF-(1,26588)  1.02504941E-05                    1_GWF-(1,14801)
        477         10         27  9.80395459E-05                    1_GWF-(1,26589)  9.29250038E-06                    1_GWF-(1,14800)
        478         10         28  9.57054506E-05                    1_GWF-(1,26588)  7.53986186E-06                    1_GWF-(1,14801)
        479         10         29 -9.30813312E-05                    1_GWF-(1,26588)  3.20081784E-06                    1_GWF-(1,14800)
        480         10         30 -9.60788354E-05                    1_GWF-(1,26589)  4.28133361E-06                    1_GWF-(1,14800)
        481         10         31 -1.12133510E-04                    1_GWF-(1,26588)  7.82371284E-06                    1_GWF-(1,14801)
        482         10         32 -7.56109978E-05                    1_GWF-(1,26543)  7.92677577E-06                    1_GWF-(1,14800)
        483         10         33 -6.20522537E-05                    1_GWF-(1,26588)  7.96661471E-06                    1_GWF-(1,14801)
        484         10         34 -6.65199634E-05                    1_GWF-(1,26422)  7.32902239E-06                    1_GWF-(1,14800)
        485         10         35 -9.41966341E-05                    1_GWF-(1,26350)  6.19403209E-06                    1_GWF-(1,14801)
        486         10         36 -1.17018194E-04                    1_GWF-(1,26422)  4.04752978E-06                    1_GWF-(1,14800)
        487         10         37 -1.26663145E-04                    1_GWF-(1,26350)  2.59706826E-06                    1_GWF-(1,15940)
        488         10         38 -1.15080499E-04                    1_GWF-(1,26422)  2.85606440E-06                    1_GWF-(1,15941)
        489         10         39 -8.79768792E-05                    1_GWF-(1,26544)  4.09340531E-06                    1_GWF-(1,14800)
        490         10         40 -8.33146497E-05                    1_GWF-(1,26486)  5.73492480E-06                    1_GWF-(1,14801)
        491         10         41 -8.10000640E-05                    1_GWF-(1,26623)  3.48119050E-06                    1_GWF-(1,14800)
        492         10         42  7.13190173E-05                    1_GWF-(1,26487)  2.34605688E-06                    1_GWF-(1,11430)
        493         10         43  9.86027589E-05                    1_GWF-(1,26420)  5.07086533E-06                    1_GWF-(1,14801)
        494         10         44  9.86727226E-05                    1_GWF-(1,26422)  6.17176428E-06                    1_GWF-(1,14800)
        495         10         45  7.69917004E-05                    1_GWF-(1,26350)  7.00555449E-06                    1_GWF-(1,14801)
        496         10         46 -8.44808362E-05                    1_GWF-(1,11428)  7.11968849E-06                    1_GWF-(1,14800)
        497         10         47  4.62024312E-05                    1_GWF-(1,26623)  6.43023196E-06                    1_GWF-(1,14801)
        498         10         48  4.57131979E-05                    1_GWF-(1,26582)  5.57404078E-06                    1_GWF-(1,14800)
        499         10         49 -9.70060768E-05                    1_GWF-(1,11428)  5.90448652E-06                    1_GWF-(1,14801)
        500         10         50  8.39344697E-05                    1_GWF-(1,11428) -5.39823863E-06                    1_GWF-(1,14801)
        501         11          1 -5.14891886E-05                    1_GWF-(1,11428)  8.88673797E-06                    1_GWF-(1,14801)
        502         11          2 -3.06467224E-05                    1_GWF-(1,26589)  6.14939748E-06                    1_GWF-(1,14800)
        503         11          3  5.16476564E-05                    1_GWF-(1,11428)  5.06489949E-06                    1_GWF-(1,14801)
        504         11          4 -7.89758694E-05                    1_GWF-(1,11428)  3.95084835E-06                    1_GWF-(1,14800)
        505         11          5 -7.40413510E-05                    1_GWF-(1,26486)  2.01325857E-06                    1_GWF-(1,14801)
        506         11          6 -5.73793878E-05                    1_GWF-(1,26487)  3.56603073E-06                    1_GWF-(1,14801)
        507         11          7 -6.32402189E-05                    1_GWF-(1,11428)  4.79772399E-06                    1_GWF-(1,14800)
        508         11          8 -5.17788045E-05                    1_GWF-(1,26421)  5.48194621E-06                    1_GWF-(1,14801)
        509         11          9  4.28318770E-05                    1_GWF-(1,11428)  5.48949425E-06                    1_GWF-(1,14800)
        510         11         10 -6.31726165E-05                    1_GWF-(1,11428)  4.96099172E-06                    1_GWF-(1,14801)
        511         11         11  3.60240454E-05                    1_GWF-(1,20603)  3.44673018E-06                    1_GWF-(1,14800)
        512         11         12  4.54650945E-05                    1_GWF-(1,26544)  2.20468901E-06                    1_GWF-(1,14801)
        513         11         13  5.70320153E-05                    1_GWF-(1,26422)  1.40019118E-06                    1_GWF-(1,15940)
        514         11         14  5.62290964E-05                    1_GWF-(1,26350)  1.73425215E-06                    1_GWF-(1,10652)
        515         11         15  4.72704782E-05                    1_GWF-(1,26486)  2.26363043E-06                    1_GWF-(1,14801)
        516         11         16  4.35018200E-05                    1_GWF-(1,26487)  1.57526492E-06                    1_GWF-(1,14800)
        517         11         17  3.59827631E-05                    1_GWF-(1,26420)  1.00993326E-06                    1_GWF-(1,15941)
        518         11         18  2.92218124E-05                    1_GWF-(1,26422)  1.85203550E-06                    1_GWF-(1,10651)
        519         11         19 -3.65122989E-05                    1_GWF-(1,26422)  2.70641294E-06                    1_GWF-(1,14800)
        520         11         20  3.56901890E-05                    1_GWF-(1,26623)  3.57541254E-06                    1_GWF-(1,14801)
        521         11         21 -3.11629782E-05                    1_GWF-(1,26422)  3.58819962E-06                    1_GWF-(1,14800)
        522         11         22 -3.20031828E-05                    1_GWF-(1,11428)  3.14802004E-06                    1_GWF-(1,14801)
        523         11         23  2.51570231E-05                    1_GWF-(1,26665)  2.63923976E-06                    1_GWF-(1,14800)
        524         11         24 -2.91371273E-05                    1_GWF-(1,26588)  1.69469462E-06                    1_GWF-(1,14801)
        525         11         25 -3.38172785E-05                    1_GWF-(1,26543)  6.27215410E-07                    1_GWF-(1,10651)
        526         11         26 -2.91948678E-05                    1_GWF-(1,26622) -1.73389656E-06                    1_GWF-(1,14801)
        527         11         27 -2.09143276E-05                    1_GWF-(1,26666) -2.36570010E-06                    1_GWF-(1,14800)
        528         11         28 -2.42673621E-05                    1_GWF-(1,11428) -2.58279495E-06                    1_GWF-(1,14801)
        529         11         29 -1.64657115E-05                    1_GWF-(1,26543) -2.56376745E-06                    1_GWF-(1,14800)
        530         11         30  1.59279181E-05                    1_GWF-(1,26589)  2.19142158E-06                    1_GWF-(1,14800)
        531         11         31  2.86798956E-05                    1_GWF-(1,26588)  1.55675129E-06                    1_GWF-(1,14801)
        532         11         32  2.50208319E-05                    1_GWF-(1,26543) -3.95739883E-07                    1_GWF-(1,10628)
        533         11         33  1.89544257E-05                    1_GWF-(1,26666)  8.90168922E-07                    1_GWF-(1,14800)
        534         11         34  1.51584935E-05                    1_GWF-(1,26487)  1.43349286E-06                    1_GWF-(1,14801)
        535         11         35 -1.70332951E-05                    1_GWF-(1,26665) -1.87480771E-06                    1_GWF-(1,14801)
        536         11         36  1.60864362E-05                    1_GWF-(1,26422) -1.77558468E-06                    1_GWF-(1,14800)
        537         11         37 -1.30952331E-05                    1_GWF-(1,20556) -1.60693743E-06                    1_GWF-(1,14801)
        538         11         38 -1.55029651E-05                    1_GWF-(1,20229) -1.62910663E-06                    1_GWF-(1,14800)
        539         11         39 -1.29702657E-05                    1_GWF-(1,20225) -1.66655026E-06                    1_GWF-(1,14801)
        540         11         40 -9.87587760E-06                    1_GWF-(1,26674) -1.44072240E-06                    1_GWF-(1,14800)
        541         11         41  1.14874705E-05                    1_GWF-(1,26623) -1.40557029E-06                    1_GWF-(1,14801)
        542         11         42  1.34281542E-05                    1_GWF-(1,26586) -1.40109207E-06                    1_GWF-(1,14800)
        543         11         43  1.72227843E-05                    1_GWF-(1,26623) -8.80103028E-07                    1_GWF-(1,14801)
        544         11         44  1.60710156E-05                    1_GWF-(1,26622) -5.85899519E-07                    1_GWF-(1,14801)
        545         11         45  1.32625334E-05                    1_GWF-(1,26649) -1.48349638E-06                    1_GWF-(1,14800)
        546         11         46  1.08739951E-05                    1_GWF-(1,20232) -1.76119059E-06                    1_GWF-(1,14801)
        547         11         47  1.28671453E-05                    1_GWF-(1,26421)  1.61133588E-06                    1_GWF-(1,14801)
        548         11         48 -1.62532359E-05                    1_GWF-(1,11439) -1.67874546E-06                    1_GWF-(1,14801)
        549         11         49  1.77434486E-05                    1_GWF-(1,26218) -1.35470801E-06                    1_GWF-(1,14800)
        550         11         50  2.31877040E-05                    1_GWF-(1,11439) -1.48335609E-06                    1_GWF-(1,14801)
        551         12          1 -2.43772846E-05                    1_GWF-(1,11439) -1.45335957E-06                    1_GWF-(1,14800)
        552         12          2 -1.66451089E-05                    1_GWF-(1,26218) -1.60087508E-06                    1_GWF-(1,14801)
        553         12          3  1.49734405E-05                    1_GWF-(1,20915)  1.26591370E-06                    1_GWF-(1,14801)
        554         12          4 -1.25839933E-05                    1_GWF-(1,11439) -1.41117814E-06                    1_GWF-(1,14801)
        555         12          5 -9.89097684E-06                    1_GWF-(1,11440) -1.32936613E-06                    1_GWF-(1,14800)
        556         12          6 -1.06446074E-05                    1_GWF-(1,26542) -5.82146816E-07                    1_GWF-(1,14801)
        557         12          7 -1.15480581E-05                    1_GWF-(1,26486) -6.24600372E-07                    1_GWF-(1,14801)
        558         12          8 -1.13640726E-05                    1_GWF-(1,26623) -1.10127414E-06                    1_GWF-(1,14800)
        559         12          9  9.87474284E-06                    1_GWF-(1,26217) -1.09245878E-06                    1_GWF-(1,14801)
        560         12         10  8.80875384E-06                    1_GWF-(1,26486) -9.93704797E-07                    1_GWF-(1,14800)
        561         12         11  7.50431588E-06                    1_GWF-(1,26674) -1.02053737E-06                    1_GWF-(1,14801)
        562         12         12  7.11016066E-06                    1_GWF-(1,11440) -8.25943254E-07                    1_GWF-(1,14800)
        563         12         13 -1.07577613E-05                    1_GWF-(1,26666) -3.59556088E-07                    1_GWF-(1,14801)
        564         12         14 -1.17073001E-05                    1_GWF-(1,26665) -3.69370732E-07                    1_GWF-(1,14801)
        565         12         15  1.29942009E-05                    1_GWF-(1,26649) -8.48227223E-07                    1_GWF-(1,14800)
        566         12         16 -9.24763330E-06                    1_GWF-(1,26218) -1.03662318E-06                    1_GWF-(1,14801)
        567         12         17 -9.58161557E-06                    1_GWF-(1,26622)  9.42106938E-07                    1_GWF-(1,14801)
        568         12         18 -1.16565074E-05                    1_GWF-(1,26623)  6.33580136E-07                    1_GWF-(1,14800)
        569         12         19 -1.24988776E-05                    1_GWF-(1,26622) -2.73820850E-07                    1_GWF-(1,10650)
        570         12         20  1.45021940E-05                    1_GWF-(1,26487)  7.04304254E-07                    1_GWF-(1,14801)
        571         12         21  1.04403085E-05                    1_GWF-(1,26420) -1.05895687E-06                    1_GWF-(1,14801)
        572         12         22 -1.18052740E-05                    1_GWF-(1,11428) -1.17908054E-06                    1_GWF-(1,14800)
        573         12         23  7.97703152E-06                    1_GWF-(1,26588) -9.98684088E-07                    1_GWF-(1,14801)
        574         12         24  1.01391710E-05                    1_GWF-(1,26666) -6.91598408E-07                    1_GWF-(1,14800)
        575         12         25  1.20229726E-05                    1_GWF-(1,26665)  2.04295952E-07                    1_GWF-(1,10652)
        576         12         26  1.46226431E-05                    1_GWF-(1,26543)  5.22056343E-07                    1_GWF-(1,14800)
        577         12         27  1.36751768E-05                    1_GWF-(1,26588)  1.07615814E-06                    1_GWF-(1,14801)
        578         12         28 -1.06874763E-05                    1_GWF-(1,11428)  1.20170689E-06                    1_GWF-(1,14800)
        579         12         29  7.57572069E-06                    1_GWF-(1,20216)  1.27209481E-06                    1_GWF-(1,14801)
        580         12         30  7.04109644E-06                    1_GWF-(1,11428)  1.35008960E-06                    1_GWF-(1,14800)
        581         12         31 -1.19701463E-05                    1_GWF-(1,11428)  1.44962290E-06                    1_GWF-(1,14801)
        582         12         32 -7.44286275E-06                    1_GWF-(1,26623)  1.22364277E-06                    1_GWF-(1,14800)
        583         12         33 -7.31323020E-06                    1_GWF-(1,26544)  1.09783426E-06                    1_GWF-(1,14801)
        584         12         34 -1.01540239E-05                    1_GWF-(1,11428)  9.56086762E-07                    1_GWF-(1,14800)
        585         12         35 -9.67593425E-06                    1_GWF-(1,26487)  7.51935525E-07                    1_GWF-(1,14801)
        586         12         36 -1.15365898E-05                    1_GWF-(1,26486)  3.53964429E-07                    1_GWF-(1,10652)
        587         12         37 -1.13562782E-05                    1_GWF-(1,26487)  6.10985449E-07                    1_GWF-(1,14800)
        588         12         38 -8.76903983E-06                    1_GWF-(1,26543)  9.09070723E-07                    1_GWF-(1,14801)
        589         12         39 -9.02226750E-06                    1_GWF-(1,20590)  8.44742714E-07                    1_GWF-(1,14800)
        590         12         40 -1.09321469E-05                    1_GWF-(1,11428)  7.83413471E-07                    1_GWF-(1,14801)
        591         12         41  8.90883265E-06                    1_GWF-(1,26350)  5.10244491E-07                    1_GWF-(1,14800)
        592         12         42  1.03860144E-05                    1_GWF-(1,26422) -3.04854137E-07                    1_GWF-(1,15941)
        593         12         43  1.17376784E-05                    1_GWF-(1,26350)  3.50064606E-07                    1_GWF-(1,14801)
        594         12         44  1.28019627E-05                    1_GWF-(1,26422)  5.91966449E-07                    1_GWF-(1,14800)
        595         12         45  1.03078473E-05                    1_GWF-(1,26350)  6.81989811E-07                    1_GWF-(1,14801)
        596         12         46  1.03351878E-05                    1_GWF-(1,26486)  5.95217289E-07                    1_GWF-(1,14800)
        597         12         47  9.32422265E-06                    1_GWF-(1,26487)  4.58119401E-07                    1_GWF-(1,14801)
        598         12         48  7.90138948E-06                    1_GWF-(1,26649)  1.82029848E-07                    1_GWF-(1,10479)
        599         12         49  7.13545761E-06                    1_GWF-(1,26622)  2.78724178E-07                    1_GWF-(1,14800)
        600         12         50 -6.02833062E-06                    1_GWF-(1,26487)  4.42477237E-07                    1_GWF-(1,14801)
        601         13          1 -5.03777100E-06                    1_GWF-(1,26350)  7.88913781E-07                    1_GWF-(1,14800)
        602         13          2 -6.71602013E-06                    1_GWF-(1,26622)  3.93931868E-07                    1_GWF-(1,14801)
        603         13          3 -7.24720469E-06                    1_GWF-(1,26623)  2.45123382E-07                    1_GWF-(1,10650)
        604         13          4 -8.61484539E-06                    1_GWF-(1,26487)  5.33704345E-07                    1_GWF-(1,14800)
        605         13          5 -9.22242879E-06                    1_GWF-(1,26486)  8.45058900E-07                    1_GWF-(1,14801)
        606         13          6 -7.88881613E-06                    1_GWF-(1,26544)  8.28827896E-07                    1_GWF-(1,14800)
        607         13          7 -7.51115890E-06                    1_GWF-(1,26422)  5.41296732E-07                    1_GWF-(1,14801)
        608         13          8 -6.26284506E-06                    1_GWF-(1,26350)  1.83886372E-07                    1_GWF-(1,14800)
        609         13          9 -5.69528929E-06                    1_GWF-(1,26422)  2.53225243E-07                    1_GWF-(1,14800)
        610         13         10 -5.53498174E-06                    1_GWF-(1,26350)  4.86361870E-07                    1_GWF-(1,14801)
        611         13         11  4.11330467E-06                    1_GWF-(1,20592)  4.78161073E-07                    1_GWF-(1,14800)
        612         13         12  4.96957038E-06                    1_GWF-(1,26588)  4.36717597E-07                    1_GWF-(1,14801)
        613         13         13  6.16265423E-06                    1_GWF-(1,26543)  2.87821928E-07                    1_GWF-(1,14800)
        614         13         14  6.14291362E-06                    1_GWF-(1,26588) -1.32597679E-07                    1_GWF-(1,15940)
        615         13         15  5.47125292E-06                    1_GWF-(1,26422)  2.63987180E-07                    1_GWF-(1,14801)
        616         13         16  4.24312973E-06                    1_GWF-(1,26350)  3.32182999E-07                    1_GWF-(1,14800)
        617         13         17  4.76756138E-06                    1_GWF-(1,26486)  3.16083826E-07                    1_GWF-(1,14801)
        618         13         18  3.84188034E-06                    1_GWF-(1,26649)  2.29270230E-07                    1_GWF-(1,10652)
        619         13         19  4.06888781E-06                    1_GWF-(1,26622)  1.31247138E-07                    1_GWF-(1,15941)
        620         13         20 -4.11194254E-06                    1_GWF-(1,26420)  2.69277595E-07                    1_GWF-(1,14801)
        621         13         21 -3.56739002E-06                    1_GWF-(1,26422)  3.73604767E-07                    1_GWF-(1,14800)
        622         13         22 -3.50170225E-06                    1_GWF-(1,26420)  4.24884522E-07                    1_GWF-(1,14801)
        623         13         23 -2.40529429E-06                    1_GWF-(1,15755)  4.43620185E-07                    1_GWF-(1,14800)
        624         13         24 -2.40696141E-06                    1_GWF-(1,26588)  5.07207653E-07                    1_GWF-(1,14801)
        625         13         25 -2.65509760E-06                    1_GWF-(1,26543) -4.56128010E-07                    1_GWF-(1,14801)
        626         13         26 -2.19202791E-06                    1_GWF-(1,26649) -3.87459529E-07                    1_GWF-(1,14800)
        627         13         27 -1.90362522E-06                    1_GWF-(1,15756) -3.47551540E-07                    1_GWF-(1,14801)
        628         13         28  2.06696557E-06                    1_GWF-(1,15756) -3.29670453E-07                    1_GWF-(1,14800)
        629         13         29  2.14803155E-06                    1_GWF-(1,26623) -2.90511570E-07                    1_GWF-(1,14801)
        630         13         30  2.36686642E-06                    1_GWF-(1,26622)  2.03922654E-07                    1_GWF-(1,14801)
        631         13         31  2.44584973E-06                    1_GWF-(1,26623)  1.11088738E-07                    1_GWF-(1,14800)
        632         13         32  3.41582375E-06                    1_GWF-(1,26622)  6.35761434E-08                    1_GWF-(1,14800)
        633         13         33  3.07792430E-06                    1_GWF-(1,26623)  1.46151266E-07                    1_GWF-(1,14801)
        634         13         34  2.95607997E-06                    1_GWF-(1,26622) -1.92119949E-07                    1_GWF-(1,14801)
        635         13         35 -1.98420609E-06                    1_GWF-(1,26622) -1.43806132E-07                    1_GWF-(1,14800)
        636         13         36 -2.50227031E-06                    1_GWF-(1,26665)  4.52879138E-08                    1_GWF-(1,11514)
        637         13         37  2.27552593E-06                    1_GWF-(1,26665) -1.03142987E-07                    1_GWF-(1,14801)
        638         13         38  2.07092107E-06                    1_GWF-(1,26666) -1.66096198E-07                    1_GWF-(1,14800)
        639         13         39 -1.54003029E-06                    1_GWF-(1,20228) -1.90712287E-07                    1_GWF-(1,14801)
        640         13         40 -1.38070919E-06                    1_GWF-(1,26674) -1.78801270E-07                    1_GWF-(1,14800)
        641         13         41 -1.84347970E-06                    1_GWF-(1,26486) -1.44345153E-07                    1_GWF-(1,14801)
        642         13         42 -2.20361760E-06                    1_GWF-(1,26487) -7.01319476E-08                    1_GWF-(1,14800)
        643         13         43 -2.22936342E-06                    1_GWF-(1,26486) -6.69905443E-08                    1_GWF-(1,14800)
        644         13         44 -1.88098453E-06                    1_GWF-(1,26487) -1.62635889E-07                    1_GWF-(1,14801)
        645         13         45 -1.53434225E-06                    1_GWF-(1,11440) -2.05685231E-07                    1_GWF-(1,14800)
        646         13         46  1.23953487E-06                    1_GWF-(1,20909) -1.96381412E-07                    1_GWF-(1,14801)
        647         13         47  1.75715841E-06                    1_GWF-(1,11439) -1.66436471E-07                    1_GWF-(1,14800)
        648         13         48 -1.83367416E-06                    1_GWF-(1,20915) -1.60833429E-07                    1_GWF-(1,14801)
        649         13         49 -2.00318414E-06                    1_GWF-(1,26588)  9.18031827E-08                    1_GWF-(1,14801)
        650         13         50  2.21252652E-06                    1_GWF-(1,11439) -6.23077597E-08                    1_GWF-(1,11514)
        651         14          1 -2.05301558E-06                    1_GWF-(1,26588)  4.73372121E-08                    1_GWF-(1,11514)
        652         14          2  2.61038601E-06                    1_GWF-(1,26588)  4.77902807E-08                    1_GWF-(1,11514)
        653         14          3  2.03850970E-06                    1_GWF-(1,11439) -1.01735070E-07                    1_GWF-(1,11514)
        654         14          4 -1.20493750E-06                    1_GWF-(1,26421)  6.29474699E-08                    1_GWF-(1,11514)
        655         14          5 -1.35666065E-06                    1_GWF-(1,11440) -6.34645416E-08                    1_GWF-(1,14800)
        656         14          6  1.18131544E-06                    1_GWF-(1,11440) -7.69775913E-08                    1_GWF-(1,14801)
        657         14          7  1.13288724E-06                    1_GWF-(1,26487) -6.28253860E-08                    1_GWF-(1,14800)
        658         14          8  1.41029906E-06                    1_GWF-(1,26486)  2.97775815E-08                    1_GWF-(1,11514)
        659         14          9  1.72559702E-06                    1_GWF-(1,26487) -5.89863060E-08                    1_GWF-(1,11514)
        660         14         10  1.52136400E-06                    1_GWF-(1,26486) -5.83983267E-08                    1_GWF-(1,14800)
        661         14         11  1.03172426E-06                    1_GWF-(1,26487) -8.17343216E-08                    1_GWF-(1,14801)
        662         14         12  8.31572619E-07                    1_GWF-(1,20231) -8.01054595E-08                    1_GWF-(1,14800)
        663         15          1 -9.11110027E-07                    1_GWF-(1,26666) -7.68376074E-08                    1_GWF-(1,14801)
 --------------------------------------------------------------------------------------------------------------------------------------



 MEMORY MANAGER TOTAL STORAGE BY DATA TYPE, IN MEGABYTES
 -------------------------------
                    ALLOCATED   
 DATA TYPE           MEMORY     
 -------------------------------
 Character        4.66090000E-02
 Logical          4.40000000E-05
 Integer          5.2037920     
 Real             11.901376     
 -------------------------------
 Total            17.151821     
 -------------------------------


 
 Run end date and time (yyyy/mm/dd hh:mm:ss): 2022/06/01 17:09:14
 Elapsed run time:  0.649 Seconds
 Normal termination of simulation.
