                                   MODFLOW 6
                U.S. GEOLOGICAL SURVEY MODULAR HYDROLOGIC MODEL
                          GROUNDWATER FLOW MODEL (GWF)
                            VERSION 6.2.2 07/30/2021

   MODFLOW 6 compiled Jul 31 2021 14:22:53 with IFORT compiler (ver. 19.10.3)

This software has been approved for release by the U.S. Geological 
Survey (USGS). Although the software has been subjected to rigorous 
review, the USGS reserves the right to update the software as needed 
pursuant to further analysis and review. No warranty, expressed or 
implied, is made by the USGS or the U.S. Government as to the 
functionality of the software and related material nor shall the 
fact of release constitute any such warranty. Furthermore, the 
software is released on condition that neither the USGS nor the U.S. 
Government shall be held liable for any damages resulting from its 
authorized or unauthorized use. Also refer to the USGS Water 
Resources Software User Rights Notice for complete use, copyright, 
and distribution information.


System command used to initiate simulation:
mf6

MODFLOW was compiled using uniform precision.

Real Variables
  KIND: 8
  TINY (smallest non-zero value):    2.225074-308
  HUGE (largest value):    1.797693+308
  PRECISION: 15
  BIT SIZE: 64

Integer Variables
  KIND: 4
  HUGE (largest value): 2147483647
  BIT SIZE: 32

Long Integer Variables
  KIND: 8
  HUGE (largest value): 9223372036854775807
  BIT SIZE: 64

Logical Variables
  KIND: 4
  BIT SIZE: 32
 

 OPENED ./ml.disv
 FILE TYPE:DISV6                  UNIT 1005   STATUS:OLD                 
 FORMAT:FORMATTED              ACCESS:SEQUENTIAL          
 ACTION:READ                


 OPENED ./ml.ic
 FILE TYPE:IC6                    UNIT 1006   STATUS:OLD                 
 FORMAT:FORMATTED              ACCESS:SEQUENTIAL          
 ACTION:READ                


 OPENED ./ml.npf
 FILE TYPE:NPF6                   UNIT 1007   STATUS:OLD                 
 FORMAT:FORMATTED              ACCESS:SEQUENTIAL          
 ACTION:READ                


 OPENED ./ml.ghb
 FILE TYPE:GHB6                   UNIT 1008   STATUS:OLD                 
 FORMAT:FORMATTED              ACCESS:SEQUENTIAL          
 ACTION:READ                


 OPENED ./ml.rcha
 FILE TYPE:RCH6                   UNIT 1009   STATUS:OLD                 
 FORMAT:FORMATTED              ACCESS:SEQUENTIAL          
 ACTION:READ                


 OPENED ./ml.obs
 FILE TYPE:OBS6                   UNIT 1010   STATUS:OLD                 
 FORMAT:FORMATTED              ACCESS:SEQUENTIAL          
 ACTION:READ                


 OPENED ./ml.oc
 FILE TYPE:OC6                    UNIT 1011   STATUS:OLD                 
 FORMAT:FORMATTED              ACCESS:SEQUENTIAL          
 ACTION:READ                


 OPENED ml.wel
 FILE TYPE:WEL6                   UNIT 1012   STATUS:OLD                 
 FORMAT:FORMATTED              ACCESS:SEQUENTIAL          
 ACTION:READ                


 OPENED ml.drn
 FILE TYPE:DRN6                   UNIT 1013   STATUS:OLD                 
 FORMAT:FORMATTED              ACCESS:SEQUENTIAL          
 ACTION:READ                


 OPENED ml.riv
 FILE TYPE:RIV6                   UNIT 1014   STATUS:OLD                 
 FORMAT:FORMATTED              ACCESS:SEQUENTIAL          
 ACTION:READ                


 DISV -- VERTEX GRID DISCRETIZATION PACKAGE, VERSION 1 : 12/23/2015 - INPUT READ FROM UNIT 1005


 # File generated by Flopy version 3.3.5 on 04/28/2022 at 15:59:01.

 PROCESSING DISCRETIZATION OPTIONS
    MODEL LENGTH UNIT IS METERS
    XORIGIN SPECIFIED AS     405575.681000000    
    YORIGIN SPECIFIED AS     6423306.54000000    
 END OF DISCRETIZATION OPTIONS

 PROCESSING DISCRETIZATION DIMENSIONS
   NLAY = 1
   NCPL = 26674
   NVERT = 27090
 END OF DISCRETIZATION DIMENSIONS

 PROCESSING GRIDDATA
 END PROCESSING GRIDDATA

 PROCESSING VERTICES
   SUCCESSFULLY READ 27090 (X,Y) COORDINATES
   MINIMUM X COORDINATE =     405575.681000000    
   MAXIMUM X COORDINATE =     413975.681000000    
   MINIMUM Y COORDINATE =     6423306.54000000    
   MAXIMUM Y COORDINATE =     6432506.54000000    
 END PROCESSING VERTICES

 PROCESSING CELL2D
   SUCCESSFULLY READ 26674 CELL2D INFORMATION ENTRIES
   MINIMUM X CELL CENTER =     405675.681000000    
   MAXIMUM X CELL CENTER =     413875.681000000    
   MINIMUM Y CELL CENTER =     6423406.54000000    
   MAXIMUM Y CELL CENTER =     6432406.54000000    
   MAXIMUM NUMBER OF CELL2D VERTICES IS 6 FOR CELL 208
 END PROCESSING VERTICES

 NPF -- NODE PROPERTY FLOW PACKAGE, VERSION 1, 3/30/2015 INPUT READ FROM UNIT 1007


 # File generated by Flopy version 3.3.5 on 04/28/2022 at 15:59:03.
 PROCESSING NPF OPTIONS
    CELL-BY-CELL FLOW INFORMATION WILL BE SAVED TO BINARY FILE WHENEVER ICBCFL IS NOT ZERO.
    SPECIFIC DISCHARGE WILL BE CALCULATED AT CELL CENTERS AND WRITTEN TO DATA-SPDIS IN BUDGET FILE WHEN REQUESTED.
 END OF NPF OPTIONS

 WEL   -- WEL PACKAGE, VERSION 8, 2/22/2014 INPUT READ FROM UNIT 1012
 # File generated by Flopy version 3.3.5 on 04/28/2022 at 15:59:04.

 PROCESSING WEL OPTIONS
    WEL BOUNDARIES HAVE NAMES IN LAST COLUMN.
    FLOWS WILL BE SAVED TO BUDGET FILE SPECIFIED IN OUTPUT CONTROL
 END OF WEL OPTIONS

 PROCESSING WEL DIMENSIONS
    MAXBOUND =       9
 END OF WEL DIMENSIONS

 DRN   -- DRN PACKAGE, VERSION 8, 2/22/2014 INPUT READ FROM UNIT 1013
 # File generated by Flopy version 3.3.5 on 04/28/2022 at 15:59:04.

 PROCESSING DRN OPTIONS
    DRN BOUNDARIES HAVE NAMES IN LAST COLUMN.
    FLOWS WILL BE SAVED TO BUDGET FILE SPECIFIED IN OUTPUT CONTROL

 OPENED ml.drn.obs
 FILE TYPE:OBS   UNIT 1016   STATUS:OLD                 
 FORMAT:FORMATTED              ACCESS:SEQUENTIAL          
 ACTION:READ                

 END OF DRN OPTIONS

 PROCESSING DRN DIMENSIONS
    MAXBOUND =     133
 END OF DRN DIMENSIONS

 RIV   -- RIV PACKAGE, VERSION 8, 2/22/2014 INPUT READ FROM UNIT 1014
 # File generated by Flopy version 3.3.5 on 04/28/2022 at 15:59:04.

 PROCESSING RIV OPTIONS
    AUXILIARY RIV VARIABLE: FID             
    RIV BOUNDARIES HAVE NAMES IN LAST COLUMN.
    FLOWS WILL BE SAVED TO BUDGET FILE SPECIFIED IN OUTPUT CONTROL
 END OF RIV OPTIONS

 PROCESSING RIV DIMENSIONS
    MAXBOUND =     794
 END OF RIV DIMENSIONS

 GHB   -- GHB PACKAGE, VERSION 8, 2/22/2014 INPUT READ FROM UNIT 1008
 # File generated by Flopy version 3.3.5 on 04/28/2022 at 15:59:03.

 PROCESSING GHB OPTIONS
    GHB BOUNDARIES HAVE NAMES IN LAST COLUMN.
    FLOWS WILL BE SAVED TO BUDGET FILE SPECIFIED IN OUTPUT CONTROL
 END OF GHB OPTIONS

 PROCESSING GHB DIMENSIONS
    MAXBOUND =     153
 END OF GHB DIMENSIONS

 RCH   -- RCH PACKAGE, VERSION 8, 2/22/2014 INPUT READ FROM UNIT 1009
 # File generated by Flopy version 3.3.5 on 04/28/2022 at 15:59:03.

 PROCESSING RCH OPTIONS
    RECHARGE INPUT WILL BE READ AS ARRAY(S).
    FLOWS WILL BE SAVED TO BUDGET FILE SPECIFIED IN OUTPUT CONTROL
 END OF RCH OPTIONS

 IC -- INITIAL CONDITIONS PACKAGE, VERSION 8, 3/28/2015 INPUT READ FROM UNIT 1006
 # File generated by Flopy version 3.3.5 on 04/28/2022 at 15:59:03.
 PROCESSING GRIDDATA

     INITIAL HEAD =   15.00000    
 END PROCESSING GRIDDATA
 PROCESSING GRIDDATA

                ICELLTYPE = 0

 OPENED ../com_ext/k.txt
 FILE TYPE:OPEN/CLOSE   UNIT 1017   STATUS:OLD                 
 FORMAT:FORMATTED              ACCESS:SEQUENTIAL          
 ACTION:READ                

 K33 not provided.  Assuming K33 = K.
 K22 not provided.  Assuming K22 = K.
 END PROCESSING GRIDDATA

The observation utility is active for "ML"
 # File generated by Flopy version 3.3.5 on 04/28/2022 at 15:59:04.

Processing observation options:

Text output number of digits of precision set to: 10
The PRINT_INPUT option has been specified.


 OBSERVATIONS READ FROM FILE "ml.obs"
 ----------------------------------------------------------------------------------------------------------------------------------------------------------------------------------------------------------------------------
 NAME                                     TYPE                                       TIME         LOCATION DATA                              OUTPUT FILENAME                                                                 
 ----------------------------------------------------------------------------------------------------------------------------------------------------------------------------------------------------------------------------
 PRG                                      CONTINUOUS  HEAD                           ALL TIMES    "1 16523"                                  sim/hds.csv                                                                     
 P8                                       CONTINUOUS  HEAD                           ALL TIMES    "1 10323"                                  sim/hds.csv                                                                     
 P24                                      CONTINUOUS  HEAD                           ALL TIMES    "1 9594"                                   sim/hds.csv                                                                     
 P25                                      CONTINUOUS  HEAD                           ALL TIMES    "1 13966"                                  sim/hds.csv                                                                     
 P32                                      CONTINUOUS  HEAD                           ALL TIMES    "1 15787"                                  sim/hds.csv                                                                     
 P33                                      CONTINUOUS  HEAD                           ALL TIMES    "1 15825"                                  sim/hds.csv                                                                     
 PF                                       CONTINUOUS  HEAD                           ALL TIMES    "1 21048"                                  sim/hds.csv                                                                     
 PH                                       CONTINUOUS  HEAD                           ALL TIMES    "1 20781"                                  sim/hds.csv                                                                     
 PZHM1                                    CONTINUOUS  HEAD                           ALL TIMES    "1 14521"                                  sim/hds.csv                                                                     
 P26                                      CONTINUOUS  HEAD                           ALL TIMES    "1 13141"                                  sim/hds.csv                                                                     
 P27                                      CONTINUOUS  HEAD                           ALL TIMES    "1 8465"                                   sim/hds.csv                                                                     
 P28                                      CONTINUOUS  HEAD                           ALL TIMES    "1 8924"                                   sim/hds.csv                                                                     
 P29                                      CONTINUOUS  HEAD                           ALL TIMES    "1 4524"                                   sim/hds.csv                                                                     
 P30                                      CONTINUOUS  HEAD                           ALL TIMES    "1 5255"                                   sim/hds.csv                                                                     
 R20                                      CONTINUOUS  HEAD                           ALL TIMES    "1 10676"                                  sim/hds.csv                                                                     
 R21                                      CONTINUOUS  HEAD                           ALL TIMES    "1 10403"                                  sim/hds.csv                                                                     
 P34                                      CONTINUOUS  HEAD                           ALL TIMES    "1 15131"                                  sim/hds.csv                                                                     
 P37                                      CONTINUOUS  HEAD                           ALL TIMES    "1 15755"                                  sim/hds.csv                                                                     
 P38                                      CONTINUOUS  HEAD                           ALL TIMES    "1 15045"                                  sim/hds.csv                                                                     
 P39                                      CONTINUOUS  HEAD                           ALL TIMES    "1 9637"                                   sim/hds.csv                                                                     
 P40                                      CONTINUOUS  HEAD                           ALL TIMES    "1 9312"                                   sim/hds.csv                                                                     
 AP1                                      CONTINUOUS  HEAD                           ALL TIMES    "1 9702"                                   sim/hds.csv                                                                     
 RCK1                                     CONTINUOUS  HEAD                           ALL TIMES    "1 15900"                                  sim/hds.csv                                                                     
 RCK2                                     CONTINUOUS  HEAD                           ALL TIMES    "1 15199"                                  sim/hds.csv                                                                     
 P23                                      CONTINUOUS  HEAD                           ALL TIMES    "1 6409"                                   sim/hds.csv                                                                     
 ----------------------------------------------------------------------------------------------------------------------------------------------------------------------------------------------------------------------------


    BINARY GRID INFORMATION WILL BE WRITTEN TO:
      UNIT NUMBER: 1019
      FILE NAME: /srv/common/ptrack/case_study/pst/ml_05/./ml.disv.grb

 OPENED /srv/common/ptrack/case_study/pst/ml_05/./ml.disv.grb
 FILE TYPE:DATA(BINARY)   UNIT 1019   STATUS:REPLACE             
 FORMAT:UNFORMATTED            ACCESS:STREAM              
 ACTION:READWRITE           

      THE LAST TIME STEP WILL BE PRINTED
      THE LAST TIME STEP WILL BE PRINTED
 # File generated by Flopy version 3.3.5 on 04/28/2022 at 15:59:04.

 PROCESSING OC OPTIONS

    BUDGET INFORMATION WILL BE WRITTEN TO:
      UNIT NUMBER: 1020
      FILE NAME: ml.cbc

 OPENED ml.cbc
 FILE TYPE:DATA(BINARY)   UNIT 1020   STATUS:REPLACE             
 FORMAT:UNFORMATTED            ACCESS:STREAM              
 ACTION:READWRITE           

    HEAD INFORMATION WILL BE WRITTEN TO:
      UNIT NUMBER: 1021
      FILE NAME: ml.hds

 OPENED ml.hds
 FILE TYPE:DATA(BINARY)   UNIT 1021   STATUS:REPLACE             
 FORMAT:UNFORMATTED            ACCESS:STREAM              
 ACTION:READWRITE           

 END OF OC OPTIONS

The observation utility is active for "DRN_0"
 # File generated by Flopy version 3.3.5 on 04/28/2022 at 15:59:04.

Processing observation options:



start timestep kper="1" kstp="1" mode="normal"


 BEGIN READING OUTPUT CONTROL FOR STRESS PERIOD 1
      THE LAST TIME STEP WILL BE SAVED
      THE LAST TIME STEP WILL BE SAVED

 END READING OUTPUT CONTROL FOR STRESS PERIOD 1

 OPENED ext/wel_spd_1.txt
 FILE TYPE:OPEN/CLOSE   UNIT 1023   STATUS:OLD                 
 FORMAT:FORMATTED              ACCESS:SEQUENTIAL          
 ACTION:READ                


 OPENED ext/drn_spd_1.txt
 FILE TYPE:OPEN/CLOSE   UNIT 1024   STATUS:OLD                 
 FORMAT:FORMATTED              ACCESS:SEQUENTIAL          
 ACTION:READ                


 OPENED ext/riv_spd_1.txt
 FILE TYPE:OPEN/CLOSE   UNIT 1025   STATUS:OLD                 
 FORMAT:FORMATTED              ACCESS:SEQUENTIAL          
 ACTION:READ                


 OPENED ../com_ext/ghb_spd_1.txt
 FILE TYPE:OPEN/CLOSE   UNIT 1026   STATUS:OLD                 
 FORMAT:FORMATTED              ACCESS:SEQUENTIAL          
 ACTION:READ                


 OPENED ../com_ext/rech_spd_1.txt
 FILE TYPE:OPEN/CLOSE   UNIT 1027   STATUS:OLD                 
 FORMAT:FORMATTED              ACCESS:SEQUENTIAL          
 ACTION:READ                


 SLN_1 INNER ITERATION SUMMARY
 --------------------------------------------------------------------------------------------------------------------------------------
      TOTAL      OUTER      INNER                                                            MAXIMUM                                   
  ITERATION  ITERATION  ITERATION  MAXIMUM CHANGE      MAXIMUM CHANGE MODEL-(CELLID)        RESIDUAL    MAXIMUM RESIDUAL MODEL-(CELLID)
 --------------------------------------------------------------------------------------------------------------------------------------
          1          1          1      -11.761916                    1_GWF-(1,12785)      0.32866514                    1_GWF-(1,11169)
          2          1          2       5.5410385                    1_GWF-(1,26601)     -0.22713397                    1_GWF-(1,11169)
          3          1          3       5.7802111                    1_GWF-(1,26565)     -0.13999824                    1_GWF-(1,11178)
          4          1          4       5.9329811                    1_GWF-(1,26512)      0.16225870                    1_GWF-(1,11178)
          5          1          5       5.6128054                    1_GWF-(1,26611)     -0.12289189                    1_GWF-(1,11180)
          6          1          6       5.9490338                    1_GWF-(1,26649)     -0.11550191                    1_GWF-(1,11157)
          7          1          7       4.8484824                    1_GWF-(1,26622) -6.85550390E-02                    1_GWF-(1,11158)
          8          1          8       3.9207938                    1_GWF-(1,26665) -6.86233837E-02                    1_GWF-(1,11180)
          9          1          9      -3.2515591                    1_GWF-(1,26665)  5.23016136E-02                    1_GWF-(1,11051)
         10          1         10      -2.8514322                    1_GWF-(1,26666) -5.55437605E-02                    1_GWF-(1,11158)
         11          1         11       2.5691745                    1_GWF-(1,26544) -5.89940905E-02                    1_GWF-(1,11180)
         12          1         12      -2.8782833                    1_GWF-(1,26622)  3.96287851E-02                    1_GWF-(1,11058)
         13          1         13      -3.4604996                    1_GWF-(1,26649)  4.32141400E-02                    1_GWF-(1,11180)
         14          1         14      -2.6521734                    1_GWF-(1,26622) -4.09535616E-02                    1_GWF-(1,11180)
         15          1         15      -1.8095334                    1_GWF-(1,26623)  2.84963629E-02                    1_GWF-(1,11026)
         16          1         16       1.3510118                    1_GWF-(1,26623)  4.89548562E-02                    1_GWF-(1,11180)
         17          1         17       1.6377573                    1_GWF-(1,26665)  4.01505801E-02                    1_GWF-(1,11051)
         18          1         18       1.9932904                    1_GWF-(1,26588) -3.42408588E-02                    1_GWF-(1,11194)
         19          1         19      -2.1944522                    1_GWF-(1,26588)  4.01241681E-02                    1_GWF-(1,11180)
         20          1         20      -1.7869660                    1_GWF-(1,26543) -2.50683906E-02                    1_GWF-(1,11104)
         21          1         21      -1.3850979                    1_GWF-(1,26544) -2.98629848E-02                    1_GWF-(1,11194)
         22          1         22      -1.6856661                    1_GWF-(1,26486)  3.26411252E-02                    1_GWF-(1,11180)
         23          1         23      -2.1026526                    1_GWF-(1,26487) -2.64354192E-02                    1_GWF-(1,11106)
         24          1         24      -2.2799816                    1_GWF-(1,26486) -3.00090674E-02                    1_GWF-(1,11194)
         25          1         25       1.9751060                    1_GWF-(1,26420) -3.57787055E-02                    1_GWF-(1,11109)
         26          1         26       2.1587874                    1_GWF-(1,26487)  2.82103726E-02                    1_GWF-(1,11151)
         27          1         27       1.8632529                    1_GWF-(1,26420) -2.80455523E-02                    1_GWF-(1,11101)
         28          1         28       1.2493814                    1_GWF-(1,26487) -3.15959541E-02                    1_GWF-(1,11109)
         29          1         29      0.90501054                    1_GWF-(1,26420)  3.30532898E-02                    1_GWF-(1,11109)
         30          1         30     -0.86469397                    1_GWF-(1,26350)  3.41474368E-02                    1_GWF-(1,11110)
         31          1         31      -1.1792336                    1_GWF-(1,26422)  2.75944148E-02                    1_GWF-(1,11105)
         32          1         32      -1.3002579                    1_GWF-(1,26350)  2.41173391E-02                     1_GWF-(1,5617)
         33          1         33      -1.4197345                    1_GWF-(1,26422)  2.86764756E-02                    1_GWF-(1,11110)
         34          1         34      -1.2124790                    1_GWF-(1,26350)  2.74323190E-02                    1_GWF-(1,11105)
         35          1         35     -0.96334006                    1_GWF-(1,26422) -3.49133326E-02                    1_GWF-(1,11105)
         36          1         36     -0.84757345                    1_GWF-(1,25255) -3.91734080E-02                    1_GWF-(1,11114)
         37          1         37     -0.98282459                    1_GWF-(1,25240)  2.72099096E-02                    1_GWF-(1,11114)
         38          1         38      -1.0706597                    1_GWF-(1,25322)  3.18604290E-02                    1_GWF-(1,11103)
         39          1         39      -1.1699719                    1_GWF-(1,25455) -3.58347380E-02                    1_GWF-(1,11096)
         40          1         40      -1.1181102                    1_GWF-(1,20223)  3.71228249E-02                    1_GWF-(1,15107)
         41          1         41      -1.1588201                    1_GWF-(1,21381)  3.83422480E-02                    1_GWF-(1,11093)
         42          1         42      -1.3951994                    1_GWF-(1,21458) -4.18140475E-02                    1_GWF-(1,11093)
         43          1         43      -1.7325695                    1_GWF-(1,21462) -4.72560823E-02                    1_GWF-(1,11094)
         44          1         44      -1.8826392                    1_GWF-(1,21417)  4.88651565E-02                    1_GWF-(1,15107)
         45          1         45      -1.5508159                    1_GWF-(1,21437)  3.52865149E-02                    1_GWF-(1,11091)
         46          1         46      -1.2997934                    1_GWF-(1,20575)  3.15336380E-02                    1_GWF-(1,11093)
         47          1         47      -1.2792888                    1_GWF-(1,20920)  2.91862198E-02                    1_GWF-(1,11094)
         48          1         48      -1.2198010                    1_GWF-(1,26218) -2.58382797E-02                    1_GWF-(1,11094)
         49          1         49      -1.2209772                    1_GWF-(1,26217) -2.42094387E-02                    1_GWF-(1,11091)
         50          1         50      -1.4048680                    1_GWF-(1,26218)  2.05848492E-02                    1_GWF-(1,14801)
         51          2          1      -20.594965                    1_GWF-(1,26519) -8.68867450E-02                    1_GWF-(1,26519)
         52          2          2      -7.9357851                    1_GWF-(1,26569) -3.42811905E-02                    1_GWF-(1,26516)
         53          2          3      -4.0728457                    1_GWF-(1,26637)  2.13193589E-02                    1_GWF-(1,26516)
         54          2          4      -4.0212150                    1_GWF-(1,26665) -1.50209436E-02                    1_GWF-(1,26519)
         55          2          5      -2.6694698                    1_GWF-(1,26648)  1.27794983E-02                    1_GWF-(1,14799)
         56          2          6      -1.9791422                    1_GWF-(1,26586)  1.32110777E-02                    1_GWF-(1,14801)
         57          2          7      -1.7698874                    1_GWF-(1,26543)  1.17005381E-02                    1_GWF-(1,14799)
         58          2          8      -1.6402748                    1_GWF-(1,26486)  1.23314622E-02                    1_GWF-(1,14801)
         59          2          9      -1.4023169                    1_GWF-(1,26487)  1.06907578E-02                    1_GWF-(1,14799)
         60          2         10      -1.3631925                    1_GWF-(1,26218)  1.04179013E-02                    1_GWF-(1,14801)
         61          2         11      -1.3747726                    1_GWF-(1,26422)  9.36244738E-03                    1_GWF-(1,14801)
         62          2         12      -1.1241407                    1_GWF-(1,26217)  8.29609202E-03                    1_GWF-(1,14799)
         63          2         13      -1.0350651                    1_GWF-(1,26218)  8.58282062E-03                    1_GWF-(1,14801)
         64          2         14     -0.67844268                    1_GWF-(1,26649)  7.77425240E-03                    1_GWF-(1,14801)
         65          2         15     -0.62161922                    1_GWF-(1,26622)  7.57904716E-03                    1_GWF-(1,14801)
         66          2         16      0.95246234                    1_GWF-(1,26420)  8.08913510E-03                    1_GWF-(1,14801)
         67          2         17       1.2452937                    1_GWF-(1,26350)  7.51086382E-03                    1_GWF-(1,14799)
         68          2         18      0.95974966                    1_GWF-(1,26217)  7.95051112E-03                    1_GWF-(1,14801)
         69          2         19      0.70432696                    1_GWF-(1,26218)  8.01218966E-03                    1_GWF-(1,14801)
         70          2         20      0.51819274                    1_GWF-(1,26486)  7.63082619E-03                    1_GWF-(1,14801)
         71          2         21      0.83447445                    1_GWF-(1,26588)  8.14343038E-03                    1_GWF-(1,14801)
         72          2         22      0.93419300                    1_GWF-(1,26543)  7.76924560E-03                    1_GWF-(1,14801)
         73          2         23      0.60178449                    1_GWF-(1,25712)  8.10430110E-03                    1_GWF-(1,14801)
         74          2         24     -0.63404466                    1_GWF-(1,26422)  9.30387229E-03                    1_GWF-(1,14801)
         75          2         25     -0.87394450                    1_GWF-(1,26486)  9.37420591E-03                    1_GWF-(1,14799)
         76          2         26     -0.95683893                    1_GWF-(1,26487)  1.00918845E-02                    1_GWF-(1,14801)
         77          2         27     -0.61169155                    1_GWF-(1,26420)  1.03331254E-02                    1_GWF-(1,14801)
         78          2         28      0.34294148                    1_GWF-(1,25453)  1.00642013E-02                    1_GWF-(1,14799)
         79          2         29      0.40166015                    1_GWF-(1,26487)  1.09245690E-02                    1_GWF-(1,14801)
         80          2         30      0.41698885                    1_GWF-(1,26420)  1.04359248E-02                    1_GWF-(1,14799)
         81          2         31      0.36083761                    1_GWF-(1,25266)  1.11215918E-02                    1_GWF-(1,14801)
         82          2         32     -0.33477220                    1_GWF-(1,26157)  1.06636965E-02                    1_GWF-(1,14799)
         83          2         33     -0.30643010                    1_GWF-(1,26150)  1.03940719E-02                    1_GWF-(1,14801)
         84          2         34      0.26444826                    1_GWF-(1,26586)  8.89787812E-03                    1_GWF-(1,14799)
         85          2         35      0.33827904                    1_GWF-(1,26623)  8.18011011E-03                    1_GWF-(1,14801)
         86          2         36      0.27369519                    1_GWF-(1,26649)  6.55280511E-03                    1_GWF-(1,14799)
         87          2         37     -0.32246988                    1_GWF-(1,26350)  6.59661784E-03                    1_GWF-(1,14801)
         88          2         38     -0.31294700                    1_GWF-(1,26422)  6.27274739E-03                    1_GWF-(1,14801)
         89          2         39     -0.35444092                    1_GWF-(1,26649)  6.60869465E-03                    1_GWF-(1,14799)
         90          2         40     -0.39491681                    1_GWF-(1,26422)  7.12928133E-03                    1_GWF-(1,14801)
         91          2         41      0.28478286                    1_GWF-(1,26422)  7.07103016E-03                    1_GWF-(1,14799)
         92          2         42      0.32586342                    1_GWF-(1,26350)  7.75085428E-03                    1_GWF-(1,14801)
         93          2         43     -0.30060637                    1_GWF-(1,26350)  7.18423856E-03                    1_GWF-(1,14799)
         94          2         44      0.34347300                    1_GWF-(1,21281)  7.46482717E-03                    1_GWF-(1,14801)
         95          2         45      0.41014084                    1_GWF-(1,21264)  6.60189367E-03                    1_GWF-(1,26625)
         96          2         46      0.43385182                    1_GWF-(1,20917)  4.46071711E-03                    1_GWF-(1,14801)
         97          2         47      0.36843219                    1_GWF-(1,20232) -3.31473747E-03                    1_GWF-(1,15940)
         98          2         48     -0.31742377                    1_GWF-(1,26665)  7.62777819E-03                    1_GWF-(1,26625)
         99          2         49     -0.33892664                    1_GWF-(1,21377) -6.46302662E-03                    1_GWF-(1,26625)
        100          2         50     -0.42730152                    1_GWF-(1,21349)  6.35386816E-03                    1_GWF-(1,15109)
        101          3          1     -0.96550840                    1_GWF-(1,16214) -4.24505178E-03                    1_GWF-(1,11460)
        102          3          2     -0.56126955                    1_GWF-(1,16200)  3.64035500E-03                    1_GWF-(1,15109)
        103          3          3     -0.37064728                    1_GWF-(1,16233)  5.04768348E-03                    1_GWF-(1,15108)
        104          3          4     -0.31783544                    1_GWF-(1,16536) -4.99005191E-03                    1_GWF-(1,15108)
        105          3          5     -0.27240122                    1_GWF-(1,21263) -3.71238877E-03                    1_GWF-(1,15109)
        106          3          6     -0.27693169                    1_GWF-(1,21260) -2.93674804E-03                    1_GWF-(1,15108)
        107          3          7      0.23658882                    1_GWF-(1,16538)  2.43133378E-03                    1_GWF-(1,15107)
        108          3          8      0.16765041                    1_GWF-(1,16545)  2.38433157E-03                    1_GWF-(1,11460)
        109          3          9     -0.17519536                    1_GWF-(1,16537)  2.15810564E-03                    1_GWF-(1,14799)
        110          3         10     -0.21484227                    1_GWF-(1,16542)  2.80165250E-03                    1_GWF-(1,14801)
        111          3         11     -0.19564353                    1_GWF-(1,16569)  3.20188754E-03                    1_GWF-(1,14799)
        112          3         12      0.18166661                    1_GWF-(1,26350)  2.88316211E-03                    1_GWF-(1,15108)
        113          3         13      0.21516949                    1_GWF-(1,26422) -2.56964880E-03                    1_GWF-(1,15108)
        114          3         14      0.23565448                    1_GWF-(1,26350)  2.08493496E-03                    1_GWF-(1,15108)
        115          3         15      0.19682825                    1_GWF-(1,26422)  1.73817402E-03                    1_GWF-(1,14801)
        116          3         16     -0.13184150                    1_GWF-(1,26422)  1.72171056E-03                    1_GWF-(1,14799)
        117          3         17     -0.10879786                    1_GWF-(1,26649)  1.96945489E-03                    1_GWF-(1,15108)
        118          3         18      0.14413702                    1_GWF-(1,11576)  2.43400864E-03                    1_GWF-(1,14936)
        119          3         19     -0.11727865                    1_GWF-(1,26586)  3.54210256E-03                    1_GWF-(1,14801)
        120          3         20     -0.12359332                    1_GWF-(1,22396)  4.54307131E-03                    1_GWF-(1,14799)
        121          3         21     -0.11819918                    1_GWF-(1,16803)  4.05526095E-03                    1_GWF-(1,14801)
        122          3         22     -0.11954380                    1_GWF-(1,11714)  3.39526512E-03                    1_GWF-(1,14799)
        123          3         23     -0.10806490                    1_GWF-(1,25444)  2.94230057E-03                    1_GWF-(1,15107)
        124          3         24     -0.10970341                    1_GWF-(1,25492)  2.47318066E-03                    1_GWF-(1,14801)
        125          3         25      0.17263449                    1_GWF-(1,26487)  2.21736124E-03                    1_GWF-(1,14801)
        126          3         26      0.20254589                    1_GWF-(1,26420)  1.78451772E-03                    1_GWF-(1,14801)
        127          3         27      0.21248698                    1_GWF-(1,26487)  2.15330267E-03                    1_GWF-(1,15109)
        128          3         28      0.14065058                    1_GWF-(1,26420)  2.85807547E-03                    1_GWF-(1,15107)
        129          3         29     -0.12228773                    1_GWF-(1,26543) -2.12054201E-03                    1_GWF-(1,15107)
        130          3         30     -0.17144872                    1_GWF-(1,26588)  1.71937240E-03                    1_GWF-(1,15107)
        131          3         31     -0.19190468                    1_GWF-(1,26543)  2.10493204E-03                    1_GWF-(1,14801)
        132          3         32     -0.16756404                    1_GWF-(1,26588)  2.17744934E-03                    1_GWF-(1,14799)
        133          3         33     -0.13746990                    1_GWF-(1,26543)  2.87643598E-03                    1_GWF-(1,15107)
        134          3         34     -0.14307450                    1_GWF-(1,26350) -3.18887891E-03                    1_GWF-(1,15107)
        135          3         35     -0.14542837                    1_GWF-(1,24856)  2.67536026E-03                    1_GWF-(1,15107)
        136          3         36      0.15342661                    1_GWF-(1,26622)  1.49843536E-03                    1_GWF-(1,10342)
        137          3         37      0.14505981                    1_GWF-(1,26649)  2.05737764E-03                    1_GWF-(1,14938)
        138          3         38      0.14952253                    1_GWF-(1,26622)  3.51675719E-03                    1_GWF-(1,15107)
        139          3         39      0.12912512                    1_GWF-(1,26649)  2.12839661E-03                    1_GWF-(1,14938)
        140          3         40     -0.13694064                    1_GWF-(1,26649)  2.14931790E-03                    1_GWF-(1,14801)
        141          3         41      0.15264144                    1_GWF-(1,26665)  2.39131203E-03                    1_GWF-(1,14801)
        142          3         42     -0.18137666                    1_GWF-(1,26665) -3.15543733E-03                    1_GWF-(1,15107)
        143          3         43     -0.12615027                    1_GWF-(1,26666)  3.38330603E-03                    1_GWF-(1,15107)
        144          3         44  9.69610617E-02                    1_GWF-(1,26540)  2.14786559E-03                    1_GWF-(1,14938)
        145          3         45      0.11016427                    1_GWF-(1,26587)  3.18390763E-03                    1_GWF-(1,15107)
        146          3         46      0.11167575                    1_GWF-(1,26648)  1.59372748E-03                    1_GWF-(1,14938)
        147          3         47      0.11898066                    1_GWF-(1,26649)  1.70672467E-03                    1_GWF-(1,15109)
        148          3         48     -0.10169062                    1_GWF-(1,26218)  2.10597521E-03                    1_GWF-(1,15108)
        149          3         49 -9.27706427E-02                    1_GWF-(1,26217)  2.53255248E-03                    1_GWF-(1,14801)
        150          3         50     -0.12552505                    1_GWF-(1,26649)  3.94527774E-03                    1_GWF-(1,15107)
        151          4          1  8.11395504E-02                    1_GWF-(1,26218)  2.72925359E-03                    1_GWF-(1,14938)
        152          4          2 -7.77154089E-02                    1_GWF-(1,26218)  3.19531739E-03                    1_GWF-(1,15107)
        153          4          3 -8.49936028E-02                    1_GWF-(1,26217) -2.25344670E-03                    1_GWF-(1,15107)
        154          4          4 -9.13897747E-02                    1_GWF-(1,26218)  2.32992634E-03                    1_GWF-(1,15107)
        155          4          5 -7.32069748E-02                    1_GWF-(1,26217)  1.29941070E-03                    1_GWF-(1,14938)
        156          4          6 -7.18879302E-02                    1_GWF-(1,26218)  8.57849258E-04                    1_GWF-(1,10342)
        157          4          7  7.70777970E-02                    1_GWF-(1,26665)  8.60729073E-04                    1_GWF-(1,10342)
        158          4          8  6.18810595E-02                    1_GWF-(1,26647)  1.13351676E-03                    1_GWF-(1,14801)
        159          4          9  8.47683165E-02                    1_GWF-(1,26665)  1.23962452E-03                    1_GWF-(1,14801)
        160          4         10 -8.80260776E-02                    1_GWF-(1,26665)  1.22436778E-03                    1_GWF-(1,14799)
        161          4         11  8.32134948E-02                    1_GWF-(1,26665)  7.66085497E-04                    1_GWF-(1,14801)
        162          4         12 -7.44624669E-02                    1_GWF-(1,26649)  1.22496348E-03                    1_GWF-(1,15107)
        163          4         13 -7.31644095E-02                    1_GWF-(1,26622)  1.17327735E-03                    1_GWF-(1,14938)
        164          4         14 -6.75999798E-02                    1_GWF-(1,26649)  1.08358545E-03                    1_GWF-(1,15107)
        165          4         15 -6.75742943E-02                    1_GWF-(1,26622)  7.26918546E-04                    1_GWF-(1,10342)
        166          4         16  6.65447437E-02                    1_GWF-(1,21411)  6.18079427E-04                    1_GWF-(1,15109)
        167          4         17  6.45774783E-02                    1_GWF-(1,21405)  1.10084277E-03                    1_GWF-(1,15107)
        168          4         18  5.64931941E-02                    1_GWF-(1,24704)  1.23352670E-03                    1_GWF-(1,14799)
        169          4         19  5.87234878E-02                    1_GWF-(1,26588)  1.31790709E-03                    1_GWF-(1,14801)
        170          4         20  5.67880810E-02                    1_GWF-(1,26543)  1.07192843E-03                    1_GWF-(1,14799)
        171          4         21  5.26895663E-02                    1_GWF-(1,26588)  7.39551756E-04                    1_GWF-(1,14801)
        172          4         22 -5.13474699E-02                    1_GWF-(1,26487)  1.23347214E-03                    1_GWF-(1,15107)
        173          4         23 -5.16907978E-02                    1_GWF-(1,26486)  1.23532826E-03                    1_GWF-(1,14938)
        174          4         24 -5.40323785E-02                    1_GWF-(1,26487)  1.29894167E-03                    1_GWF-(1,15107)
        175          4         25  5.33663635E-02                    1_GWF-(1,26487)  5.75922679E-04                    1_GWF-(1,14799)
        176          4         26  5.85115299E-02                    1_GWF-(1,26420)  7.31604626E-04                    1_GWF-(1,14938)
        177          4         27  4.35963234E-02                    1_GWF-(1,26487)  1.60426565E-03                    1_GWF-(1,15107)
        178          4         28  3.31040233E-02                    1_GWF-(1,26420) -1.36897719E-03                    1_GWF-(1,15107)
        179          4         29  3.86440948E-02                    1_GWF-(1,26543)  2.12264868E-03                    1_GWF-(1,15107)
        180          4         30  3.96625313E-02                    1_GWF-(1,26586) -1.51377624E-03                    1_GWF-(1,15107)
        181          4         31  4.04485491E-02                    1_GWF-(1,26623)  1.78032110E-03                    1_GWF-(1,15107)
        182          4         32  3.30936642E-02                    1_GWF-(1,26586) -1.48495393E-03                    1_GWF-(1,15107)
        183          4         33  2.39725610E-02                    1_GWF-(1,26623)  2.01645705E-03                    1_GWF-(1,15107)
        184          4         34  2.94176272E-02                    1_GWF-(1,26350)  1.03328561E-03                    1_GWF-(1,14938)
        185          4         35  3.53734138E-02                    1_GWF-(1,26422)  7.82663752E-04                    1_GWF-(1,15107)
        186          4         36 -3.43718959E-02                    1_GWF-(1,26422)  6.26908935E-04                    1_GWF-(1,14801)
        187          4         37 -4.37796126E-02                    1_GWF-(1,26350)  8.25758744E-04                    1_GWF-(1,14801)
        188          4         38 -4.78260187E-02                    1_GWF-(1,26422)  1.20607596E-03                    1_GWF-(1,15107)
        189          4         39 -5.04402806E-02                    1_GWF-(1,26350) -1.14779528E-03                    1_GWF-(1,15107)
        190          4         40 -5.39336714E-02                    1_GWF-(1,26422)  1.38324502E-03                    1_GWF-(1,15107)
        191          4         41 -4.22554346E-02                    1_GWF-(1,26350)  7.53498229E-04                    1_GWF-(1,15022)
        192          4         42 -3.07872467E-02                    1_GWF-(1,26422)  9.16836849E-04                    1_GWF-(1,15107)
        193          4         43 -2.21310496E-02                    1_GWF-(1,16545)  4.24734051E-04                    1_GWF-(1,15939)
        194          4         44 -2.65910557E-02                    1_GWF-(1,16538)  5.19716180E-04                    1_GWF-(1,15109)
        195          4         45 -2.81977007E-02                    1_GWF-(1,16237) -4.10048071E-04                    1_GWF-(1,15109)
        196          4         46 -2.44706869E-02                    1_GWF-(1,16230)  5.25565649E-04                    1_GWF-(1,14799)
        197          4         47  2.96445253E-02                    1_GWF-(1,16536)  6.27789867E-04                    1_GWF-(1,14801)
        198          4         48  3.59445464E-02                    1_GWF-(1,16192)  6.92887142E-04                    1_GWF-(1,14799)
        199          4         49  4.25680410E-02                    1_GWF-(1,16200)  1.00459528E-03                    1_GWF-(1,15107)
        200          4         50  3.56129071E-02                    1_GWF-(1,14464) -2.03839232E-03                    1_GWF-(1,15107)
        201          5          1 -5.32231388E-02                    1_GWF-(1,16203)  1.19447775E-03                    1_GWF-(1,15107)
        202          5          2 -2.92031590E-02                    1_GWF-(1,11421) -1.33760551E-03                    1_GWF-(1,15107)
        203          5          3 -2.90838573E-02                    1_GWF-(1,16236)  1.32773585E-03                    1_GWF-(1,15107)
        204          5          4 -2.69478279E-02                    1_GWF-(1,26422) -8.31925512E-04                    1_GWF-(1,15107)
        205          5          5 -2.58391455E-02                    1_GWF-(1,20233)  5.68429944E-04                    1_GWF-(1,15107)
        206          5          6 -2.10087876E-02                    1_GWF-(1,26486) -3.74147512E-04                    1_GWF-(1,15107)
        207          5          7 -1.67535767E-02                    1_GWF-(1,26543) -3.82377000E-04                    1_GWF-(1,11460)
        208          5          8 -1.43680558E-02                    1_GWF-(1,19052)  4.37127654E-04                    1_GWF-(1,14798)
        209          5          9  1.85949593E-02                    1_GWF-(1,26422)  3.90896846E-04                    1_GWF-(1,14938)
        210          5         10  2.01090795E-02                    1_GWF-(1,26350)  7.65272546E-04                    1_GWF-(1,15107)
        211          5         11  2.12456196E-02                    1_GWF-(1,26422) -6.63769825E-04                    1_GWF-(1,15107)
        212          5         12  2.13151052E-02                    1_GWF-(1,26350)  9.25121671E-04                    1_GWF-(1,15107)
        213          5         13  2.44042903E-02                    1_GWF-(1,26422)  5.67642809E-04                    1_GWF-(1,14938)
        214          5         14  2.29222188E-02                    1_GWF-(1,26544)  5.27644178E-04                    1_GWF-(1,15107)
        215          5         15  2.25718655E-02                    1_GWF-(1,26486)  3.96186402E-04                    1_GWF-(1,14798)
        216          5         16  1.85010130E-02                    1_GWF-(1,26649)  4.00403506E-04                    1_GWF-(1,14799)
        217          5         17  2.00819590E-02                    1_GWF-(1,26486)  7.09656325E-04                    1_GWF-(1,15107)
        218          5         18  1.49601981E-02                    1_GWF-(1,26487) -3.44547914E-04                    1_GWF-(1,15107)
        219          5         19 -1.80340239E-02                    1_GWF-(1,26588)  2.66651882E-04                    1_GWF-(1,14799)
        220          5         20 -1.52356112E-02                    1_GWF-(1,26586)  5.80814066E-04                    1_GWF-(1,15107)
        221          5         21 -1.79693855E-02                    1_GWF-(1,26623)  6.16229944E-04                    1_GWF-(1,14938)
        222          5         22 -1.59285042E-02                    1_GWF-(1,26586)  9.25324834E-04                    1_GWF-(1,15107)
        223          5         23 -1.33561957E-02                    1_GWF-(1,25279) -8.19455343E-04                    1_GWF-(1,15107)
        224          5         24 -1.14136814E-02                    1_GWF-(1,25380)  9.31721753E-04                    1_GWF-(1,15107)
        225          5         25 -1.26927441E-02                    1_GWF-(1,26218) -7.74263416E-04                    1_GWF-(1,15107)
        226          5         26 -1.50346767E-02                    1_GWF-(1,26487)  5.70952056E-04                    1_GWF-(1,15107)
        227          5         27  1.70449143E-02                    1_GWF-(1,26622)  3.53216724E-04                    1_GWF-(1,14801)
        228          5         28  1.52472126E-02                    1_GWF-(1,26649)  3.68758651E-04                    1_GWF-(1,14799)
        229          5         29 -1.26009714E-02                    1_GWF-(1,26649)  5.51099302E-04                    1_GWF-(1,15107)
        230          5         30 -1.28834657E-02                    1_GWF-(1,24960) -5.11271795E-04                    1_GWF-(1,15107)
        231          5         31 -1.35069134E-02                    1_GWF-(1,24957)  6.29908447E-04                    1_GWF-(1,15107)
        232          5         32 -1.50734897E-02                    1_GWF-(1,24676)  3.42477426E-04                    1_GWF-(1,14799)
        233          5         33 -1.71661398E-02                    1_GWF-(1,24702)  2.96013104E-04                    1_GWF-(1,15107)
        234          5         34 -1.66322373E-02                    1_GWF-(1,24701)  1.49807271E-04                    1_GWF-(1,14800)
        235          5         35  1.51772642E-02                    1_GWF-(1,26543) -2.29427044E-04                    1_GWF-(1,15107)
        236          5         36  1.83550213E-02                    1_GWF-(1,26588)  2.78268661E-04                    1_GWF-(1,15107)
        237          5         37 -1.58083992E-02                    1_GWF-(1,21420) -3.01788087E-04                    1_GWF-(1,15107)
        238          5         38 -1.49512662E-02                    1_GWF-(1,24313)  3.11951214E-04                    1_GWF-(1,15107)
        239          5         39 -1.24028857E-02                    1_GWF-(1,24315)  1.95448649E-04                    1_GWF-(1,14798)
        240          5         40 -1.59173898E-02                    1_GWF-(1,26665) -2.15846030E-04                    1_GWF-(1,15107)
        241          5         41 -1.45530470E-02                    1_GWF-(1,26666)  2.66001818E-04                    1_GWF-(1,15107)
        242          5         42 -1.47186811E-02                    1_GWF-(1,26665)  2.80649512E-04                    1_GWF-(1,14801)
        243          5         43 -1.06050549E-02                    1_GWF-(1,26666)  2.19076995E-04                    1_GWF-(1,14799)
        244          5         44  1.02743910E-02                    1_GWF-(1,26217)  2.15541469E-04                    1_GWF-(1,11460)
        245          5         45  1.20316207E-02                    1_GWF-(1,26218) -2.01243198E-04                    1_GWF-(1,15107)
        246          5         46  9.76403673E-03                    1_GWF-(1,26217)  4.03895777E-04                    1_GWF-(1,15107)
        247          5         47 -1.08026455E-02                    1_GWF-(1,26217) -3.71937325E-04                    1_GWF-(1,15107)
        248          5         48 -1.10319273E-02                    1_GWF-(1,26218)  4.73705219E-04                    1_GWF-(1,15107)
        249          5         49  9.68430949E-03                    1_GWF-(1,26218) -3.15329915E-04                    1_GWF-(1,15107)
        250          5         50  9.82649338E-03                    1_GWF-(1,26217)  3.96042685E-04                    1_GWF-(1,15107)
        251          6          1 -9.93729393E-03                    1_GWF-(1,11459) -6.12622457E-04                    1_GWF-(1,11459)
        252          6          2  7.23206247E-03                    1_GWF-(1,26217)  5.00569197E-04                    1_GWF-(1,15107)
        253          6          3  1.31273701E-02                    1_GWF-(1,26218)  6.02842524E-04                    1_GWF-(1,11459)
        254          6          4  1.04504941E-02                    1_GWF-(1,26217) -3.48826409E-04                    1_GWF-(1,11459)
        255          6          5  8.72152634E-03                    1_GWF-(1,21677)  1.18750544E-04                    1_GWF-(1,14938)
        256          6          6  1.14382857E-02                    1_GWF-(1,11456)  1.88173642E-04                    1_GWF-(1,11459)
        257          6          7 -7.76039726E-03                    1_GWF-(1,26217) -2.07411285E-04                    1_GWF-(1,11459)
        258          6          8  7.56832055E-03                    1_GWF-(1,21709)  1.31255606E-04                    1_GWF-(1,14799)
        259          6          9  1.21811151E-02                    1_GWF-(1,11456)  2.14712120E-04                    1_GWF-(1,15107)
        260          6         10  9.59078449E-03                    1_GWF-(1,26666) -1.54223950E-04                    1_GWF-(1,15107)
        261          6         11  9.88711745E-03                    1_GWF-(1,26665)  9.85777791E-05                    1_GWF-(1,14798)
        262          6         12  1.30311725E-02                    1_GWF-(1,11456)  1.94132853E-04                    1_GWF-(1,15107)
        263          6         13  8.61375748E-03                    1_GWF-(1,24313) -1.93422837E-04                    1_GWF-(1,15107)
        264          6         14  8.35979150E-03                    1_GWF-(1,21421)  2.02478164E-04                    1_GWF-(1,15107)
        265          6         15  1.35877031E-02                    1_GWF-(1,11456) -1.28704121E-04                    1_GWF-(1,15107)
        266          6         16  7.19100573E-03                    1_GWF-(1,21413)  9.48830983E-05                    1_GWF-(1,15107)
        267          6         17 -9.09886670E-03                    1_GWF-(1,11456)  1.45574632E-04                    1_GWF-(1,15107)
        268          6         18  1.40277735E-02                    1_GWF-(1,11456)  1.70543892E-04                    1_GWF-(1,14799)
        269          6         19  6.22066525E-03                    1_GWF-(1,24678)  3.00460359E-04                    1_GWF-(1,15107)
        270          6         20 -7.38915318E-03                    1_GWF-(1,11456) -2.21205764E-04                    1_GWF-(1,15107)
        271          6         21  1.32233873E-02                    1_GWF-(1,11456)  2.21440949E-04                    1_GWF-(1,15107)
        272          6         22 -7.75044813E-03                    1_GWF-(1,11456) -1.49007637E-04                    1_GWF-(1,15107)
        273          6         23 -5.45029301E-03                    1_GWF-(1,26649)  1.11391378E-04                    1_GWF-(1,15107)
        274          6         24  9.06202760E-03                    1_GWF-(1,11456)  1.65815460E-04                    1_GWF-(1,15107)
        275          6         25  5.80641536E-03                    1_GWF-(1,26487) -2.32054207E-04                    1_GWF-(1,15107)
        276          6         26 -8.37591965E-03                    1_GWF-(1,11456)  2.74562607E-04                    1_GWF-(1,15107)
        277          6         27  1.15009478E-02                    1_GWF-(1,11456) -2.13524953E-04                    1_GWF-(1,15107)
        278          6         28 -5.99332122E-03                    1_GWF-(1,11456)  2.83468924E-04                    1_GWF-(1,15107)
        279          6         29  4.26669341E-03                    1_GWF-(1,26586)  1.61736431E-04                    1_GWF-(1,14938)
        280          6         30  9.53487394E-03                    1_GWF-(1,11456)  1.66671176E-04                    1_GWF-(1,15107)
        281          6         31 -7.84881010E-03                    1_GWF-(1,11456)  8.13124408E-05                    1_GWF-(1,11455)
        282          6         32 -4.26550055E-03                    1_GWF-(1,26350)  9.42517685E-05                    1_GWF-(1,14801)
        283          6         33  6.65539114E-03                    1_GWF-(1,11456)  1.08905946E-04                    1_GWF-(1,15107)
        284          6         34 -6.68371076E-03                    1_GWF-(1,11456) -1.08505670E-04                    1_GWF-(1,15107)
        285          6         35 -5.35199562E-03                    1_GWF-(1,26622)  1.11581975E-04                    1_GWF-(1,15107)
        286          6         36 -6.28601128E-03                    1_GWF-(1,26623)  9.42715482E-05                    1_GWF-(1,14801)
        287          6         37 -5.27777501E-03                    1_GWF-(1,26586)  9.09120494E-05                    1_GWF-(1,11455)
        288          6         38 -5.60515532E-03                    1_GWF-(1,26588)  1.73599718E-04                    1_GWF-(1,15107)
        289          6         39  6.14155350E-03                    1_GWF-(1,11456) -1.10512510E-04                    1_GWF-(1,15107)
        290          6         40 -4.69822487E-03                    1_GWF-(1,26422)  1.26055406E-04                    1_GWF-(1,15107)
        291          6         41 -4.27225871E-03                    1_GWF-(1,26350) -6.74285206E-05                    1_GWF-(1,11455)
        292          6         42  4.67293596E-03                    1_GWF-(1,11456)  7.08035562E-05                    1_GWF-(1,14801)
        293          6         43 -4.38602034E-03                    1_GWF-(1,11456)  1.01156436E-04                    1_GWF-(1,11455)
        294          6         44 -2.45129991E-03                    1_GWF-(1,16540) -1.14162509E-04                    1_GWF-(1,11455)
        295          6         45  2.83794298E-03                    1_GWF-(1,26486)  1.00883302E-04                    1_GWF-(1,15107)
        296          6         46 -4.24098258E-03                    1_GWF-(1,11456) -1.44267006E-04                    1_GWF-(1,15107)
        297          6         47  3.74585143E-03                    1_GWF-(1,16538)  1.67787475E-04                    1_GWF-(1,15107)
        298          6         48  4.00570448E-03                    1_GWF-(1,16194) -1.48328488E-04                    1_GWF-(1,15107)
        299          6         49  3.97441969E-03                    1_GWF-(1,16113)  1.78821925E-04                    1_GWF-(1,15107)
        300          6         50  3.96810329E-03                    1_GWF-(1,11456) -2.38184358E-04                    1_GWF-(1,11455)
        301          7          1 -9.44476132E-03                    1_GWF-(1,11456) -9.51823386E-05                    1_GWF-(1,11456)
        302          7          2 -3.88666247E-03                    1_GWF-(1,16231) -1.59580129E-04                    1_GWF-(1,15107)
        303          7          3  3.27581448E-03                    1_GWF-(1,11455)  1.96927398E-04                    1_GWF-(1,15107)
        304          7          4 -3.35025975E-03                    1_GWF-(1,16580) -9.85223340E-05                    1_GWF-(1,15107)
        305          7          5 -4.36710928E-03                    1_GWF-(1,11455)  6.01902940E-05                    1_GWF-(1,15107)
        306          7          6  6.16194806E-03                    1_GWF-(1,11455) -4.59456060E-05                    1_GWF-(1,15107)
        307          7          7  4.02855984E-03                    1_GWF-(1,11380)  3.46406385E-05                    1_GWF-(1,14802)
        308          7          8 -2.04737663E-03                    1_GWF-(1,19052)  5.13480566E-05                    1_GWF-(1,14801)
        309          7          9  4.20464678E-03                    1_GWF-(1,11455)  4.83363975E-05                    1_GWF-(1,14938)
        310          7         10 -4.82462366E-03                    1_GWF-(1,11455)  9.67736777E-05                    1_GWF-(1,15107)
        311          7         11 -4.05743677E-03                    1_GWF-(1,11380)  7.71059320E-05                    1_GWF-(1,14938)
        312          7         12  2.60571863E-03                    1_GWF-(1,26350)  1.03792985E-04                    1_GWF-(1,15107)
        313          7         13  3.35791068E-03                    1_GWF-(1,26588)  5.03720646E-05                    1_GWF-(1,14938)
        314          7         14  3.09374766E-03                    1_GWF-(1,26589)  4.25083494E-05                    1_GWF-(1,14801)
        315          7         15  3.53357669E-03                    1_GWF-(1,26623)  6.63547934E-05                    1_GWF-(1,15107)
        316          7         16  2.81906345E-03                    1_GWF-(1,26622) -6.96575197E-05                    1_GWF-(1,15107)
        317          7         17 -2.27949808E-03                    1_GWF-(1,11380)  4.76606889E-05                    1_GWF-(1,15107)
        318          7         18  2.15991153E-03                    1_GWF-(1,26486)  3.60843546E-05                    1_GWF-(1,14801)
        319          7         19  1.95656586E-03                    1_GWF-(1,26350) -4.30550677E-05                    1_GWF-(1,15107)
        320          7         20 -2.32155831E-03                    1_GWF-(1,11380)  6.60522856E-05                    1_GWF-(1,15107)
        321          7         21 -1.88910909E-03                    1_GWF-(1,25268)  7.17946688E-05                    1_GWF-(1,14938)
        322          7         22 -1.88454327E-03                    1_GWF-(1,26586)  1.26960253E-04                    1_GWF-(1,15107)
        323          7         23 -1.77441259E-03                    1_GWF-(1,26588) -8.14613832E-05                    1_GWF-(1,15107)
        324          7         24 -1.59743230E-03                    1_GWF-(1,26487)  7.08195880E-05                    1_GWF-(1,15107)
        325          7         25 -2.41017360E-03                    1_GWF-(1,26420)  2.89274886E-05                    1_GWF-(1,14801)
        326          7         26 -2.78220259E-03                    1_GWF-(1,26487)  3.07351537E-05                    1_GWF-(1,14799)
        327          7         27 -2.29524479E-03                    1_GWF-(1,26420)  8.81259657E-05                    1_GWF-(1,15107)
        328          7         28 -1.50190623E-03                    1_GWF-(1,25116) -6.18810136E-05                    1_GWF-(1,15107)
        329          7         29 -1.57709703E-03                    1_GWF-(1,24429)  5.49979334E-05                    1_GWF-(1,15107)
        330          7         30 -1.66037679E-03                    1_GWF-(1,24961)  2.61297916E-05                    1_GWF-(1,14801)
        331          7         31 -1.95239754E-03                    1_GWF-(1,26649)  3.68310394E-05                    1_GWF-(1,14801)
        332          7         32 -1.68677359E-03                    1_GWF-(1,26622)  7.02007744E-05                    1_GWF-(1,15107)
        333          7         33 -2.00297692E-03                    1_GWF-(1,24680) -5.70437719E-05                    1_GWF-(1,15107)
        334          7         34 -2.05996765E-03                    1_GWF-(1,24701)  7.23755240E-05                    1_GWF-(1,15107)
        335          7         35 -1.76978431E-03                    1_GWF-(1,24689)  3.70463300E-05                    1_GWF-(1,15022)
        336          7         36 -1.82349829E-03                    1_GWF-(1,21424)  3.69443338E-05                    1_GWF-(1,15107)
        337          7         37 -1.80835858E-03                    1_GWF-(1,21420) -2.86521889E-05                    1_GWF-(1,15107)
        338          7         38 -1.81154587E-03                    1_GWF-(1,24313)  2.42238498E-05                    1_GWF-(1,15107)
        339          7         39 -1.52843044E-03                    1_GWF-(1,24313)  2.88220359E-05                    1_GWF-(1,11459)
        340          7         40 -1.77074551E-03                    1_GWF-(1,26665) -3.32179294E-05                    1_GWF-(1,15107)
        341          7         41 -1.74953578E-03                    1_GWF-(1,26666)  2.61327475E-05                    1_GWF-(1,15107)
        342          7         42 -1.75574259E-03                    1_GWF-(1,26665)  3.23622840E-05                    1_GWF-(1,11459)
        343          7         43 -1.31524799E-03                    1_GWF-(1,26666) -2.94184978E-05                    1_GWF-(1,11459)
        344          7         44  1.21914286E-03                    1_GWF-(1,26217)  1.90402571E-05                    1_GWF-(1,14798)
        345          7         45  1.50005148E-03                    1_GWF-(1,26218)  3.10948477E-05                    1_GWF-(1,11459)
        346          7         46  1.29695814E-03                    1_GWF-(1,26217)  5.19403863E-05                    1_GWF-(1,15107)
        347          7         47  1.35565107E-03                    1_GWF-(1,26218) -5.05081636E-05                    1_GWF-(1,15107)
        348          7         48 -1.41312316E-03                    1_GWF-(1,26218)  6.29126711E-05                    1_GWF-(1,15107)
        349          7         49 -1.19166239E-03                    1_GWF-(1,26217) -4.08587419E-05                    1_GWF-(1,11459)
        350          7         50  1.21850019E-03                    1_GWF-(1,26217)  4.54033896E-05                    1_GWF-(1,15107)
        351          8          1 -3.19557017E-03                    1_GWF-(1,11455) -2.92340339E-05                    1_GWF-(1,11455)
        352          8          2 -1.93650264E-03                    1_GWF-(1,11380)  5.91676830E-05                    1_GWF-(1,15107)
        353          8          3  1.93555970E-03                    1_GWF-(1,11380) -4.76775601E-05                    1_GWF-(1,15107)
        354          8          4  1.39745106E-03                    1_GWF-(1,11460)  3.04901702E-05                    1_GWF-(1,15107)
        355          8          5 -3.68672396E-03                    1_GWF-(1,11380)  1.54632437E-05                    1_GWF-(1,14938)
        356          8          6  3.68968167E-03                    1_GWF-(1,11380)  9.80885453E-06                    1_GWF-(1,11455)
        357          8          7  1.69306413E-03                    1_GWF-(1,11460)  1.41468658E-05                    1_GWF-(1,14798)
        358          8          8 -2.05319487E-03                    1_GWF-(1,11380)  1.48699121E-05                    1_GWF-(1,14801)
        359          8          9  2.87011883E-03                    1_GWF-(1,11380)  2.23729969E-05                    1_GWF-(1,15107)
        360          8         10  1.07423208E-03                    1_GWF-(1,20578) -1.93215653E-05                    1_GWF-(1,15107)
        361          8         11 -1.51916782E-03                    1_GWF-(1,11380)  8.08151143E-06                    1_GWF-(1,14798)
        362          8         12  2.18464917E-03                    1_GWF-(1,11380)  1.54493413E-05                    1_GWF-(1,15107)
        363          8         13  1.13931874E-03                    1_GWF-(1,24313) -1.88537865E-05                    1_GWF-(1,15107)
        364          8         14 -1.25177018E-03                    1_GWF-(1,11380)  1.83373594E-05                    1_GWF-(1,15107)
        365          8         15  1.14611829E-03                    1_GWF-(1,11380)  9.04742074E-06                    1_GWF-(1,14801)
        366          8         16  8.34159209E-04                    1_GWF-(1,21435)  1.27523520E-05                    1_GWF-(1,14938)
        367          8         17 -1.20599637E-03                    1_GWF-(1,11380)  2.74841516E-05                    1_GWF-(1,15107)
        368          8         18 -1.17339502E-03                    1_GWF-(1,11381)  1.95228055E-05                    1_GWF-(1,14799)
        369          8         19 -9.53083479E-04                    1_GWF-(1,11458)  3.92557569E-05                    1_GWF-(1,15107)
        370          8         20  8.21195793E-04                    1_GWF-(1,11458) -2.73791552E-05                    1_GWF-(1,15107)
        371          8         21 -8.21422374E-04                    1_GWF-(1,11381)  2.62523059E-05                    1_GWF-(1,15107)
        372          8         22  6.25846460E-04                    1_GWF-(1,24961) -2.45902822E-05                    1_GWF-(1,15107)
        373          8         23  6.49753095E-04                    1_GWF-(1,11458)  2.91982522E-05                    1_GWF-(1,15107)
        374          8         24 -6.84611044E-04                    1_GWF-(1,26543)  1.07986021E-05                    1_GWF-(1,14799)
        375          8         25 -7.75885067E-04                    1_GWF-(1,26588) -1.35502912E-05                    1_GWF-(1,15107)
        376          8         26 -5.95163359E-04                    1_GWF-(1,26665)  2.68853146E-05                    1_GWF-(1,15107)
        377          8         27  4.98857771E-04                    1_GWF-(1,11380) -2.24424683E-05                    1_GWF-(1,15107)
        378          8         28  4.85525636E-04                    1_GWF-(1,26588)  2.92745178E-05                    1_GWF-(1,15107)
        379          8         29  7.08900124E-04                    1_GWF-(1,26649)  1.39392985E-05                    1_GWF-(1,14938)
        380          8         30  7.55101588E-04                    1_GWF-(1,26487)  8.71230992E-06                    1_GWF-(1,10342)
        381          8         31  6.77705334E-04                    1_GWF-(1,26486)  1.52814903E-05                    1_GWF-(1,15107)
        382          8         32  5.43061036E-04                    1_GWF-(1,26487) -1.88720914E-05                    1_GWF-(1,15107)
        383          8         33  4.17801476E-04                     1_GWF-(1,8015)  1.61468365E-05                    1_GWF-(1,15107)
        384          8         34 -5.01589597E-04                    1_GWF-(1,26486)  8.56838084E-06                    1_GWF-(1,14799)
        385          8         35 -4.78274109E-04                    1_GWF-(1,26586)  9.42354887E-06                    1_GWF-(1,14801)
        386          8         36 -5.62281597E-04                    1_GWF-(1,26486)  1.20927881E-05                    1_GWF-(1,14801)
        387          8         37 -5.72428830E-04                    1_GWF-(1,26544)  9.93734967E-06                    1_GWF-(1,15022)
        388          8         38 -6.66833795E-04                    1_GWF-(1,26422)  2.01171254E-05                    1_GWF-(1,15107)
        389          8         39 -6.06724191E-04                    1_GWF-(1,26350)  1.29842824E-05                    1_GWF-(1,14938)
        390          8         40 -5.71816275E-04                    1_GWF-(1,26422)  1.65088319E-05                    1_GWF-(1,15107)
        391          8         41 -5.00931097E-04                    1_GWF-(1,26350)  7.59285839E-06                    1_GWF-(1,14938)
        392          8         42 -6.00468555E-04                    1_GWF-(1,11466)  7.48718369E-06                    1_GWF-(1,14801)
        393          8         43  4.71978799E-04                    1_GWF-(1,11466)  8.03243266E-06                    1_GWF-(1,14801)
        394          8         44 -3.49223409E-04                    1_GWF-(1,11460) -8.63175782E-06                    1_GWF-(1,15107)
        395          8         45  3.47303088E-04                    1_GWF-(1,26486)  1.18141888E-05                    1_GWF-(1,15107)
        396          8         46  4.04219074E-04                    1_GWF-(1,11466) -1.49744506E-05                    1_GWF-(1,15107)
        397          8         47  4.62986954E-04                    1_GWF-(1,16538)  2.04120593E-05                    1_GWF-(1,15107)
        398          8         48  4.74532421E-04                    1_GWF-(1,16237) -1.97585233E-05                    1_GWF-(1,15107)
        399          8         49  4.48027301E-04                    1_GWF-(1,16230)  2.20462641E-05                    1_GWF-(1,15107)
        400          8         50 -4.50192763E-04                    1_GWF-(1,11466) -2.10179707E-05                    1_GWF-(1,15107)
        401          9          1  4.34886589E-04                    1_GWF-(1,11466)  2.03192230E-05                    1_GWF-(1,15107)
        402          9          2 -4.39668097E-04                    1_GWF-(1,16230) -1.34980260E-05                    1_GWF-(1,15107)
        403          9          3 -4.51424949E-04                    1_GWF-(1,16236)  1.46539469E-05                    1_GWF-(1,15107)
        404          9          4 -3.89872502E-04                    1_GWF-(1,26422)  9.87618919E-06                    1_GWF-(1,14799)
        405          9          5 -3.63985192E-04                    1_GWF-(1,26420)  4.89080603E-06                    1_GWF-(1,14798)
        406          9          6 -4.25105828E-04                    1_GWF-(1,26588)  5.07019594E-06                    1_GWF-(1,14802)
        407          9          7 -3.78187108E-04                    1_GWF-(1,26543)  6.94384332E-06                    1_GWF-(1,14801)
        408          9          8 -4.02485210E-04                    1_GWF-(1,26623)  8.77123622E-06                    1_GWF-(1,15107)
        409          9          9 -2.93195313E-04                    1_GWF-(1,26622)  4.23156707E-06                    1_GWF-(1,14798)
        410          9         10  3.19939097E-04                    1_GWF-(1,11466)  4.43421001E-06                    1_GWF-(1,14802)
        411          9         11 -3.71679270E-04                    1_GWF-(1,11466)  8.14852970E-06                    1_GWF-(1,15107)
        412          9         12 -2.69721050E-04                    1_GWF-(1,11381)  6.94095877E-06                    1_GWF-(1,14938)
        413          9         13  2.75387316E-04                    1_GWF-(1,26544)  1.14920348E-05                    1_GWF-(1,15107)
        414          9         14  3.01234366E-04                    1_GWF-(1,26422)  8.90664596E-06                    1_GWF-(1,14938)
        415          9         15  2.77263541E-04                    1_GWF-(1,26350)  1.19198925E-05                    1_GWF-(1,15107)
        416          9         16 -3.09393676E-04                    1_GWF-(1,26350) -7.17238789E-06                    1_GWF-(1,15107)
        417          9         17 -2.91542139E-04                    1_GWF-(1,26422)  6.02093240E-06                    1_GWF-(1,14801)
        418          9         18  2.62735632E-04                    1_GWF-(1,26422)  4.98305302E-06                    1_GWF-(1,14801)
        419          9         19 -2.15537640E-04                     1_GWF-(1,8023) -7.24195938E-06                    1_GWF-(1,15107)
        420          9         20 -3.34304653E-04                    1_GWF-(1,26649)  8.94618433E-06                    1_GWF-(1,15107)
        421          9         21 -3.44979056E-04                    1_GWF-(1,26622)  6.83438065E-06                    1_GWF-(1,14938)
        422          9         22 -3.40844671E-04                    1_GWF-(1,26486)  3.90877263E-06                    1_GWF-(1,10342)
        423          9         23 -2.85162680E-04                    1_GWF-(1,26544)  7.25683449E-06                    1_GWF-(1,15107)
        424          9         24 -2.79471457E-04                    1_GWF-(1,26486) -8.02134147E-06                    1_GWF-(1,15107)
        425          9         25 -1.91625500E-04                    1_GWF-(1,24742)  1.06467755E-05                    1_GWF-(1,15107)
        426          9         26  2.48714733E-04                     1_GWF-(1,8339) -8.34134623E-06                    1_GWF-(1,15107)
        427          9         27  2.03618224E-04                    1_GWF-(1,26588)  8.20063466E-06                    1_GWF-(1,15107)
        428          9         28 -1.92763431E-04                    1_GWF-(1,25116)  5.45039235E-06                    1_GWF-(1,14801)
        429          9         29 -2.15980282E-04                    1_GWF-(1,26543) -4.87387870E-06                    1_GWF-(1,15107)
        430          9         30 -2.08699219E-04                    1_GWF-(1,24961)  6.80396953E-06                    1_GWF-(1,15107)
        431          9         31 -2.07185054E-04                    1_GWF-(1,24983)  6.46362653E-06                    1_GWF-(1,14938)
        432          9         32 -2.18510070E-04                    1_GWF-(1,24678)  8.90011508E-06                    1_GWF-(1,15107)
        433          9         33 -2.39172183E-04                    1_GWF-(1,24678)  3.78311054E-06                    1_GWF-(1,14796)
        434          9         34  2.59694858E-04                    1_GWF-(1,26665)  3.46449336E-06                    1_GWF-(1,14800)
        435          9         35 -2.72092323E-04                    1_GWF-(1,26665)  7.41197453E-06                    1_GWF-(1,15107)
        436          9         36  2.29050238E-04                    1_GWF-(1,26665) -7.01034003E-06                    1_GWF-(1,15107)
        437          9         37 -2.18086438E-04                    1_GWF-(1,21423)  6.86491842E-06                    1_GWF-(1,15107)
        438          9         38 -2.28036729E-04                    1_GWF-(1,24313)  5.43941572E-06                    1_GWF-(1,14938)
        439          9         39 -1.94063399E-04                    1_GWF-(1,24586)  6.12800999E-06                    1_GWF-(1,15107)
        440          9         40 -1.81481582E-04                    1_GWF-(1,20915) -5.22182934E-06                    1_GWF-(1,15107)
        441          9         41 -1.99001517E-04                    1_GWF-(1,20576)  3.19268824E-06                    1_GWF-(1,14801)
        442          9         42 -2.11334855E-04                    1_GWF-(1,11380)  2.95689034E-06                    1_GWF-(1,14798)
        443          9         43 -1.74701042E-04                     1_GWF-(1,8445)  2.01274455E-06                    1_GWF-(1,14801)
        444          9         44  1.70254446E-04                    1_GWF-(1,26217)  4.48917334E-06                    1_GWF-(1,15107)
        445          9         45 -2.23765469E-04                    1_GWF-(1,11380)  3.35714302E-06                    1_GWF-(1,14938)
        446          9         46  1.75290150E-04                    1_GWF-(1,11439)  4.77500697E-06                    1_GWF-(1,15107)
        447          9         47  2.33433101E-04                    1_GWF-(1,26622)  4.02680673E-06                    1_GWF-(1,14801)
        448          9         48  2.08347628E-04                    1_GWF-(1,26623)  3.53793739E-06                    1_GWF-(1,14799)
        449          9         49 -1.51171528E-04                    1_GWF-(1,15167)  6.08110488E-06                    1_GWF-(1,15107)
        450          9         50  1.64382309E-04                    1_GWF-(1,11380) -5.69973408E-06                    1_GWF-(1,15107)
        451         10          1 -1.83924588E-04                    1_GWF-(1,26218)  8.43633688E-06                    1_GWF-(1,15107)
        452         10          2  1.63730889E-04                    1_GWF-(1,26218) -3.18612586E-06                    1_GWF-(1,15107)
        453         10          3  1.90562969E-04                    1_GWF-(1,11380)  3.49239415E-06                    1_GWF-(1,14801)
        454         10          4 -1.96804198E-04                    1_GWF-(1,26622)  5.05693313E-06                    1_GWF-(1,15107)
        455         10          5 -1.47603201E-04                    1_GWF-(1,26588) -3.50396163E-06                    1_GWF-(1,15107)
        456         10          6  1.81798282E-04                    1_GWF-(1,11380)  3.16843474E-06                    1_GWF-(1,15107)
        457         10          7  1.26591808E-04                    1_GWF-(1,21671)  1.63147360E-06                    1_GWF-(1,10342)
        458         10          8  1.23688153E-04                    1_GWF-(1,20931)  2.07336611E-06                    1_GWF-(1,14799)
        459         10          9  1.37119660E-04                    1_GWF-(1,20571)  3.55761877E-06                    1_GWF-(1,15107)
        460         10         10  1.47382248E-04                    1_GWF-(1,20578) -4.60759048E-06                    1_GWF-(1,15107)
        461         10         11  1.25635202E-04                    1_GWF-(1,24352)  4.86867764E-06                    1_GWF-(1,15107)
        462         10         12  1.33827445E-04                    1_GWF-(1,24311) -4.42364356E-06                    1_GWF-(1,15107)
[...]
        562         12         12  1.60670817E-05                    1_GWF-(1,26649)  1.32077860E-07                    1_GWF-(1,11121)
        563         12         13  1.74054579E-05                    1_GWF-(1,24313)  3.15877375E-07                    1_GWF-(1,14938)
        564         12         14  1.64627654E-05                    1_GWF-(1,21419)  5.68685626E-07                    1_GWF-(1,15107)
        565         12         15  1.59541734E-05                    1_GWF-(1,21426) -6.20901649E-07                    1_GWF-(1,15107)
        566         12         16  1.52970443E-05                    1_GWF-(1,11379)  9.25361035E-07                    1_GWF-(1,15107)
        567         12         17  1.45200707E-05                    1_GWF-(1,24687) -4.41612576E-07                    1_GWF-(1,15107)
        568         12         18  1.56729258E-05                    1_GWF-(1,26588)  3.54727679E-07                    1_GWF-(1,14799)
        569         12         19  1.17223554E-05                    1_GWF-(1,26543)  7.41703568E-07                    1_GWF-(1,15107)
        570         12         20  1.15629511E-05                    1_GWF-(1,24751) -6.68908395E-07                    1_GWF-(1,15107)
        571         12         21  1.14326041E-05                    1_GWF-(1,24961)  7.07389804E-07                    1_GWF-(1,15107)
        572         12         22  1.05662335E-05                    1_GWF-(1,24961) -7.37477189E-07                    1_GWF-(1,15107)
        573         12         23  9.65604639E-06                    1_GWF-(1,25114)  8.34858812E-07                    1_GWF-(1,15107)
        574         12         24 -1.04551778E-05                     1_GWF-(1,8474) -4.63677491E-07                    1_GWF-(1,15107)
        575         12         25 -1.21530830E-05                     1_GWF-(1,8339)  2.10001836E-07                    1_GWF-(1,14798)
        576         12         26 -1.29538891E-05                    1_GWF-(1,26665)  3.72774445E-07                    1_GWF-(1,15107)
        577         12         27 -9.87966706E-06                    1_GWF-(1,26666) -6.42103445E-07                    1_GWF-(1,15107)
        578         12         28  1.06251828E-05                    1_GWF-(1,11379)  9.21428605E-07                    1_GWF-(1,15107)
        579         12         29  8.49067613E-06                    1_GWF-(1,26665) -6.76799526E-07                    1_GWF-(1,15107)
        580         12         30  8.62395307E-06                    1_GWF-(1,26623)  6.30274330E-07                    1_GWF-(1,15107)
        581         12         31  1.05408554E-05                    1_GWF-(1,11379) -4.85578025E-07                    1_GWF-(1,15107)
        582         12         32  8.04663102E-06                     1_GWF-(1,8017)  2.57651985E-07                    1_GWF-(1,15107)
        583         12         33 -6.90812560E-06                    1_GWF-(1,26486)  1.96953979E-07                    1_GWF-(1,14801)
        584         12         34 -8.33892394E-06                    1_GWF-(1,26544) -2.67385993E-07                    1_GWF-(1,15107)
        585         12         35 -9.66432746E-06                    1_GWF-(1,26486)  5.07250445E-07                    1_GWF-(1,15107)
        586         12         36 -1.01439938E-05                    1_GWF-(1,26544) -4.40140302E-07                    1_GWF-(1,15107)
        587         12         37 -1.24585844E-05                    1_GWF-(1,26486)  4.46194867E-07                    1_GWF-(1,15107)
        588         12         38 -1.13106532E-05                    1_GWF-(1,26544)  1.72039168E-07                    1_GWF-(1,14938)
        589         12         39 -1.26531204E-05                    1_GWF-(1,26486)  1.27785529E-07                    1_GWF-(1,14938)
        590         12         40 -1.12087637E-05                    1_GWF-(1,26487)  3.61461896E-07                    1_GWF-(1,15107)
        591         12         41 -9.57691780E-06                    1_GWF-(1,26420) -2.38804842E-07                    1_GWF-(1,15107)
        592         12         42 -7.77853019E-06                    1_GWF-(1,26422)  2.09206451E-07                    1_GWF-(1,15107)
        593         12         43  6.14328533E-06                    1_GWF-(1,11379)  1.66736826E-07                    1_GWF-(1,14801)
        594         12         44  5.74276212E-06                    1_GWF-(1,11380) -1.30705995E-07                    1_GWF-(1,15107)
        595         12         45  7.44157613E-06                    1_GWF-(1,26649)  2.56512691E-07                    1_GWF-(1,15107)
        596         12         46 -9.28931982E-06                    1_GWF-(1,26649) -2.00501779E-07                    1_GWF-(1,15107)
        597         12         47  8.95551892E-06                    1_GWF-(1,26649)  1.80161786E-07                    1_GWF-(1,14801)
        598         12         48  7.22384716E-06                    1_GWF-(1,26622)  2.04049327E-07                    1_GWF-(1,15107)
        599         12         49  7.54479663E-06                    1_GWF-(1,16233) -2.68653913E-07                    1_GWF-(1,15107)
        600         12         50  6.71470098E-06                    1_GWF-(1,16125)  4.89250955E-07                    1_GWF-(1,15107)
        601         13          1  6.54848187E-06                    1_GWF-(1,26623) -6.18259231E-07                    1_GWF-(1,15107)
        602         13          2 -7.22667999E-06                    1_GWF-(1,26420)  3.02519753E-07                    1_GWF-(1,15107)
        603         13          3 -7.92070678E-06                    1_GWF-(1,26487) -2.05751941E-07                    1_GWF-(1,11455)
        604         13          4 -7.80946583E-06                    1_GWF-(1,26420) -4.10416305E-07                    1_GWF-(1,15107)
        605         13          5 -6.91641942E-06                    1_GWF-(1,26487)  4.25445481E-07                    1_GWF-(1,15107)
        606         13          6 -6.16560832E-06                    1_GWF-(1,26649) -2.70476137E-07                    1_GWF-(1,15107)
        607         13          7 -5.54825728E-06                    1_GWF-(1,26648)  1.44568711E-07                    1_GWF-(1,14801)
        608         13          8 -6.75104935E-06                    1_GWF-(1,26649)  1.98303972E-07                    1_GWF-(1,15107)
        609         13          9 -6.70253803E-06                    1_GWF-(1,26622) -2.35725899E-07                    1_GWF-(1,15107)
        610         13         10 -5.11879403E-06                    1_GWF-(1,26649)  2.33850338E-07                    1_GWF-(1,15107)
        611         13         11  4.87773122E-06                    1_GWF-(1,26487)  2.05162445E-07                    1_GWF-(1,11455)
        612         13         12  6.14249964E-06                    1_GWF-(1,26486) -2.31747567E-07                    1_GWF-(1,11455)
        613         13         13  6.57551859E-06                    1_GWF-(1,26544)  2.76721289E-07                    1_GWF-(1,15107)
        614         13         14  8.37482832E-06                    1_GWF-(1,26486) -1.98302177E-07                    1_GWF-(1,15107)
        615         13         15  7.06436119E-06                    1_GWF-(1,26588) -1.42059087E-07                    1_GWF-(1,11455)
        616         13         16  6.14520440E-06                    1_GWF-(1,26543)  2.37176408E-07                    1_GWF-(1,15107)
        617         13         17  4.48175640E-06                    1_GWF-(1,26588) -3.43356994E-07                    1_GWF-(1,15107)
        618         13         18  4.35054123E-06                    1_GWF-(1,26350)  3.72216183E-07                    1_GWF-(1,15107)
        619         13         19  4.64984197E-06                    1_GWF-(1,26422) -3.15947901E-07                    1_GWF-(1,15107)
        620         13         20 -4.36310780E-06                    1_GWF-(1,26422)  1.96101820E-07                    1_GWF-(1,15107)
        621         13         21 -4.43342308E-06                    1_GWF-(1,26544) -1.53708585E-07                    1_GWF-(1,11455)
        622         13         22 -4.24818915E-06                    1_GWF-(1,26422)  9.67665268E-08                    1_GWF-(1,14938)
        623         13         23 -3.90211120E-06                    1_GWF-(1,26420)  2.17338532E-07                    1_GWF-(1,15107)
        624         13         24 -3.88655965E-06                    1_GWF-(1,26422) -2.95892995E-07                    1_GWF-(1,15107)
        625         13         25  3.56856202E-06                     1_GWF-(1,8334)  3.82457030E-07                    1_GWF-(1,15107)
        626         13         26  4.57384829E-06                     1_GWF-(1,8339) -3.04037213E-07                    1_GWF-(1,15107)
        627         13         27  3.97194155E-06                     1_GWF-(1,8444)  2.73792453E-07                    1_GWF-(1,15107)
        628         13         28  3.54860117E-06                    1_GWF-(1,26665)  1.11851313E-07                    1_GWF-(1,14938)
        629         13         29 -3.37593751E-06                    1_GWF-(1,24429)  1.12057854E-07                    1_GWF-(1,14799)
        630         13         30 -3.56313688E-06                    1_GWF-(1,24961)  1.87974433E-07                    1_GWF-(1,15107)
        631         13         31 -3.49260106E-06                    1_GWF-(1,24751) -2.46127078E-07                    1_GWF-(1,15107)
        632         13         32 -3.64733768E-06                    1_GWF-(1,25050)  3.35814071E-07                    1_GWF-(1,15107)
        633         13         33  3.84296479E-06                    1_GWF-(1,26486) -1.67047258E-07                    1_GWF-(1,15107)
        634         13         34  4.77012009E-06                    1_GWF-(1,26487)  7.13264454E-08                    1_GWF-(1,14802)
        635         13         35  3.66299052E-06                    1_GWF-(1,26486)  3.10281495E-07                    1_GWF-(1,15107)
        636         13         36 -3.19162780E-06                    1_GWF-(1,21486) -3.16090848E-07                    1_GWF-(1,15107)
        637         13         37 -3.29410825E-06                    1_GWF-(1,21422)  2.87168939E-07                    1_GWF-(1,15107)
        638         13         38 -3.58387553E-06                    1_GWF-(1,24313) -1.88549039E-07                    1_GWF-(1,15107)
        639         13         39 -3.01044957E-06                    1_GWF-(1,24311) -1.30912609E-07                    1_GWF-(1,11455)
        640         13         40 -4.12042094E-06                    1_GWF-(1,26622)  4.38787998E-08                    1_GWF-(1,11455)
        641         13         41 -4.71444398E-06                    1_GWF-(1,26649) -1.31328807E-07                    1_GWF-(1,15107)
        642         13         42 -3.82607165E-06                    1_GWF-(1,26622)  1.94224038E-07                    1_GWF-(1,15107)
        643         13         43 -2.62065336E-06                     1_GWF-(1,8444) -1.47753335E-07                    1_GWF-(1,15107)
        644         13         44  2.33153459E-06                    1_GWF-(1,11460)  1.15640584E-07                    1_GWF-(1,15107)
        645         13         45 -2.70870980E-06                    1_GWF-(1,11460) -1.31221842E-07                    1_GWF-(1,11455)
        646         13         46  4.19009624E-06                    1_GWF-(1,26588)  7.09184828E-08                    1_GWF-(1,14799)
        647         13         47  3.94455991E-06                    1_GWF-(1,26589)  1.06251003E-07                    1_GWF-(1,15107)
        648         13         48  4.03712463E-06                    1_GWF-(1,26588) -1.15133350E-07                    1_GWF-(1,11455)
        649         13         49 -2.38642335E-06                    1_GWF-(1,11380)  7.33939237E-08                    1_GWF-(1,14799)
        650         13         50  3.02401425E-06                    1_GWF-(1,11460)  8.85439250E-08                    1_GWF-(1,11455)
        651         14          1 -3.09420160E-06                    1_GWF-(1,11460) -1.17545514E-07                    1_GWF-(1,11455)
        652         14          2  2.07480872E-06                    1_GWF-(1,26217)  7.21997147E-08                    1_GWF-(1,14801)
        653         14          3 -3.10881712E-06                    1_GWF-(1,26588)  1.73003402E-07                    1_GWF-(1,11455)
        654         14          4 -2.99941580E-06                    1_GWF-(1,26589) -6.11951915E-08                    1_GWF-(1,11455)
        655         14          5 -3.34471423E-06                    1_GWF-(1,26588) -1.13169552E-07                    1_GWF-(1,11455)
        656         14          6  2.06110254E-06                    1_GWF-(1,26588)  1.34854237E-07                    1_GWF-(1,11455)
        657         14          7  2.33073648E-06                    1_GWF-(1,11439)  5.56706571E-08                    1_GWF-(1,15107)
        658         14          8 -1.96699442E-06                    1_GWF-(1,26217) -9.17008619E-08                    1_GWF-(1,11455)
        659         14          9  2.05165813E-06                    1_GWF-(1,20577)  9.88392868E-08                    1_GWF-(1,11455)
        660         14         10  2.40697275E-06                    1_GWF-(1,26649)  5.00517797E-08                    1_GWF-(1,14824)
        661         14         11  2.52857452E-06                    1_GWF-(1,26622) -7.27180002E-08                    1_GWF-(1,11455)
        662         14         12  2.10639340E-06                    1_GWF-(1,26649)  6.77399624E-08                    1_GWF-(1,11455)
        663         14         13  2.28243289E-06                    1_GWF-(1,24311)  3.41580416E-08                    1_GWF-(1,14824)
        664         14         14  2.14214588E-06                    1_GWF-(1,21422) -6.97501511E-08                    1_GWF-(1,11455)
        665         14         15  2.00150046E-06                    1_GWF-(1,21426)  7.73924752E-08                    1_GWF-(1,11455)
        666         14         16  1.84953233E-06                    1_GWF-(1,24690)  4.55522099E-08                    1_GWF-(1,14935)
        667         14         17 -2.02404858E-06                    1_GWF-(1,26487) -5.08469849E-08                    1_GWF-(1,11455)
        668         14         18 -2.01246319E-06                    1_GWF-(1,26486)  5.66475027E-08                    1_GWF-(1,14801)
        669         14         19  1.59373191E-06                    1_GWF-(1,25051)  5.39772750E-08                    1_GWF-(1,14801)
        670         14         20  1.57776803E-06                    1_GWF-(1,24756) -6.14232174E-08                    1_GWF-(1,11455)
        671         14         21  1.42000833E-06                    1_GWF-(1,24961) -6.22639638E-08                    1_GWF-(1,15107)
        672         14         22  1.23106476E-06                    1_GWF-(1,24983)  6.36526351E-08                    1_GWF-(1,15107)
        673         14         23 -1.57175236E-06                    1_GWF-(1,26665) -5.11178312E-08                    1_GWF-(1,11455)
        674         14         24 -1.40916700E-06                    1_GWF-(1,26666)  4.67425023E-08                    1_GWF-(1,11455)
        675         14         25 -1.52875933E-06                     1_GWF-(1,8450)  6.69257590E-08                    1_GWF-(1,15107)
        676         14         26 -1.36334178E-06                     1_GWF-(1,8332) -8.75009884E-08                    1_GWF-(1,15107)
        677         14         27  9.40936415E-07                    1_GWF-(1,11458)  1.16210105E-07                    1_GWF-(1,15107)
        678         15          1 -8.99193911E-07                    1_GWF-(1,11458) -9.22667444E-08                    1_GWF-(1,15107)
 --------------------------------------------------------------------------------------------------------------------------------------


 UBDSV1 SAVING     FLOW-JA-FACE ON UNIT   1020 AT TIME STEP      1, STRESS PERIOD      1
 UBDSV06 SAVING       DATA-SPDIS IN MODEL ML               PACKAGE NPF             CONNECTED TO MODEL ML               PACKAGE NPF              ON UNIT   1020 AT TIME STEP      1, STRESS PERIOD      1
 UBDSV06 SAVING              WEL IN MODEL ML               PACKAGE ML              CONNECTED TO MODEL ML               PACKAGE WEL_0            ON UNIT   1020 AT TIME STEP      1, STRESS PERIOD      1
 UBDSV06 SAVING              DRN IN MODEL ML               PACKAGE ML              CONNECTED TO MODEL ML               PACKAGE DRN_0            ON UNIT   1020 AT TIME STEP      1, STRESS PERIOD      1
 UBDSV06 SAVING              RIV IN MODEL ML               PACKAGE ML              CONNECTED TO MODEL ML               PACKAGE RIV_0            ON UNIT   1020 AT TIME STEP      1, STRESS PERIOD      1
 UBDSV06 SAVING              GHB IN MODEL ML               PACKAGE ML              CONNECTED TO MODEL ML               PACKAGE GHB_0            ON UNIT   1020 AT TIME STEP      1, STRESS PERIOD      1
 UBDSV06 SAVING              RCH IN MODEL ML               PACKAGE ML              CONNECTED TO MODEL ML               PACKAGE RCHA_0           ON UNIT   1020 AT TIME STEP      1, STRESS PERIOD      1

 HEAD WILL BE SAVED ON UNIT 1021 AT END OF TIME STEP    1, STRESS PERIOD    1


  VOLUME BUDGET FOR ENTIRE MODEL AT END OF TIME STEP    1, STRESS PERIOD   1
  ---------------------------------------------------------------------------------------------------

     CUMULATIVE VOLUME      L**3       RATES FOR THIS TIME STEP      L**3/T          PACKAGE NAME    
     ------------------                 ------------------------                     ----------------

           IN:                                      IN:
           ---                                      ---
                 WEL =           0.0000                   WEL =           0.0000     WEL_0           
                 DRN =           0.0000                   DRN =           0.0000     DRN_0           
                 RIV =           5.0298                   RIV =           1.0060     RIV_0           
                 GHB =          13.8152                   GHB =           2.7630     GHB_0           
                 RCH =           1.3136                   RCH =           0.2627     RCHA_0          

            TOTAL IN =          20.1586              TOTAL IN =           4.0317

          OUT:                                     OUT:
          ----                                     ----
                 WEL =           0.9918                   WEL =           0.1984     WEL_0           
                 DRN =           0.9723                   DRN =           0.1945     DRN_0           
                 RIV =          18.1694                   RIV =           3.6339     RIV_0           
                 GHB =       2.5050E-02                   GHB =       5.0100E-03     GHB_0           
                 RCH =           0.0000                   RCH =           0.0000     RCHA_0          

           TOTAL OUT =          20.1586             TOTAL OUT =           4.0317

            IN - OUT =      -1.5009E-05              IN - OUT =      -3.0018E-06

 PERCENT DISCREPANCY =          -0.00     PERCENT DISCREPANCY =          -0.00




         TIME SUMMARY AT END OF TIME STEP    1 IN STRESS PERIOD    1
                    SECONDS     MINUTES      HOURS       DAYS        YEARS
                    -----------------------------------------------------------
   TIME STEP LENGTH  5.0000     8.33333E-02 1.38889E-03 5.78704E-05 1.58440E-07
 STRESS PERIOD TIME  5.0000     8.33333E-02 1.38889E-03 5.78704E-05 1.58440E-07
         TOTAL TIME  5.0000     8.33333E-02 1.38889E-03 5.78704E-05 1.58440E-07


end timestep

