                                   MODFLOW 6
                U.S. GEOLOGICAL SURVEY MODULAR HYDROLOGIC MODEL
                            VERSION 6.2.2 07/30/2021

   MODFLOW 6 compiled Jul 31 2021 14:22:53 with IFORT compiler (ver. 19.10.3)

This software has been approved for release by the U.S. Geological 
Survey (USGS). Although the software has been subjected to rigorous 
review, the USGS reserves the right to update the software as needed 
pursuant to further analysis and review. No warranty, expressed or 
implied, is made by the USGS or the U.S. Government as to the 
functionality of the software and related material nor shall the 
fact of release constitute any such warranty. Furthermore, the 
software is released on condition that neither the USGS nor the U.S. 
Government shall be held liable for any damages resulting from its 
authorized or unauthorized use. Also refer to the USGS Water 
Resources Software User Rights Notice for complete use, copyright, 
and distribution information.


System command used to initiate simulation:
mf6

MODFLOW was compiled using uniform precision.

Real Variables
  KIND: 8
  TINY (smallest non-zero value):    2.225074-308
  HUGE (largest value):    1.797693+308
  PRECISION: 15
  BIT SIZE: 64

Integer Variables
  KIND: 4
  HUGE (largest value): 2147483647
  BIT SIZE: 32

Long Integer Variables
  KIND: 8
  HUGE (largest value): 9223372036854775807
  BIT SIZE: 64

Logical Variables
  KIND: 4
  BIT SIZE: 32
 

 OPENED mfsim.nam
 FILE TYPE:NAM   UNIT 1001   STATUS:OLD                 
 FORMAT:FORMATTED              ACCESS:SEQUENTIAL          
 ACTION:READ                

 # File generated by Flopy version 3.3.5 on 04/28/2022 at 15:59:16.

 READING SIMULATION OPTIONS
 END OF SIMULATION OPTIONS

 READING SIMULATION TIMING

 OPENED mfsim.tdis
 FILE TYPE:TDIS   UNIT 1002   STATUS:OLD                 
 FORMAT:FORMATTED              ACCESS:SEQUENTIAL          
 ACTION:READ                


 TDIS -- TEMPORAL DISCRETIZATION PACKAGE,
 VERSION 1 : 11/13/2014 - INPUT READ FROM UNIT 1002
 # File generated by Flopy version 3.3.5 on 04/28/2022 at 15:59:16.
 PROCESSING TDIS OPTIONS
    SIMULATION TIME UNIT IS SECONDS
 END OF TDIS OPTIONS
 PROCESSING TDIS DIMENSIONS
    1 STRESS PERIOD(S) IN SIMULATION
 END OF TDIS DIMENSIONS
 PROCESSING TDIS PERIODDATA


 STRESS PERIOD     LENGTH       TIME STEPS     MULTIPLIER FOR DELT
 ----------------------------------------------------------------------------
        1         7.000000          1                    1.000
 END OF TDIS PERIODDATA
 END OF SIMULATION TIMING

 READING SIMULATION MODELS
    GWF6 model ML will be created as model 1
 END OF SIMULATION MODELS

 READING SIMULATION EXCHANGES
 END OF SIMULATION EXCHANGES

 READING SOLUTIONGROUP

 Creating solution: SLN_1           

 OPENED mfsim.ims
 FILE TYPE:IMS   UNIT 1015   STATUS:OLD                 
 FORMAT:FORMATTED              ACCESS:SEQUENTIAL          
 ACTION:READ                

 END OF SIMULATION SOLUTIONGROUP

 IMS -- ITERATIVE MODEL SOLUTION PACKAGE, VERSION 6, 4/28/2017
         INPUT READ FROM UNIT 1015
 # File generated by Flopy version 3.3.5 on 04/28/2022 at 15:59:16.

 PROCESSING IMS OPTIONS
 END OF IMS OPTIONS

 PROCESSING IMS NONLINEAR
 END OF IMS NONLINEAR DATA
 ***UNDER-RELAXATION WILL NOT BE USED***
 
 ***IMS LINEAR SOLVER WILL BE USED***

 IMSLINEAR -- UNSTRUCTURED LINEAR SOLUTION PACKAGE, VERSION 8, 04/28/2017

 PROCESSING LINEAR DATA
 END OF LINEAR DATA
 
 OUTER ITERATION CONVERGENCE CRITERION    (DVCLOSE) =    0.100000E-04
 MAXIMUM NUMBER OF OUTER ITERATIONS        (MXITER) = 100
 SOLVER PRINTOUT INDEX                     (IPRIMS) = 2
 NONLINEAR ITERATION METHOD            (NONLINMETH) = 0
 LINEAR SOLUTION METHOD                   (LINMETH) = 1

       SOLUTION BY THE        CONJUGATE-GRADIENT       METHOD
 ------------------------------------------------------------------
 MAXIMUM OF 100 CALLS OF SOLUTION ROUTINE
 MAXIMUM OF 50 INTERNAL ITERATIONS PER CALL TO SOLUTION ROUTINE
 LINEAR ACCELERATION METHOD            = CG        
 MATRIX PRECONDITIONING TYPE           = INCOMPLETE LU       
 MATRIX SCALING APPROACH               = NO SCALING          
 MATRIX REORDERING APPROACH            = ORIGINAL ORDERING        
 NUMBER OF ORTHOGONALIZATIONS          = 0
 HEAD CHANGE CRITERION FOR CLOSURE     =    0.10000E-05
 RESIDUAL CHANGE CRITERION FOR CLOSURE =    0.10000E-04
 RESIDUAL CONVERGENCE OPTION           = 1
 RESIDUAL CONVERGENCE NORM             = INFINITY NORM S 
 RELAXATION FACTOR                     =    0.00000E+00



 
    Solving:  Stress period:     1    Time step:     1
 
1
                            STRESS PERIOD NO. 1, LENGTH =   7.000000    
                            -----------------------------------------------
                            NUMBER OF TIME STEPS = 1
                            MULTIPLIER FOR DELT =     1.000
                            INITIAL TIME STEP SIZE =   7.000000    

 SLN_1 OUTER ITERATION SUMMARY
 ----------------------------------------------------------------------------------------------------------
                                OUTER      INNER                    STEP   MAXIMUM CHANGE MODEL-(CELLID) OR
 OUTER ITERATION STEP       ITERATION  ITERATION  MAXIMUM CHANGE SUCCESS             MODEL-PACKAGE-(NUMBER)
 ----------------------------------------------------------------------------------------------------------
 Model                              1         50       25.408153                            1_GWF-(1,26519)
 Model                              2         50      -20.448623                            1_GWF-(1,26519)
 Model                              3         50      -1.7936617                            1_GWF-(1,21325)
 Model                              4         50      0.77220074                            1_GWF-(1,21671)
 Model                              5         50     -0.18265754                            1_GWF-(1,21220)
 Model                              6         50  8.92403071E-02                            1_GWF-(1,21661)
 Model                              7         50 -2.14231360E-02                            1_GWF-(1,21304)
 Model                              8         50  1.07879846E-02                            1_GWF-(1,21499)
 Model                              9         50 -2.68056760E-03                            1_GWF-(1,21298)
 Model                             10         50  1.32431450E-03                            1_GWF-(1,21477)
 Model                             11         50 -3.35491452E-04                            1_GWF-(1,21297)
 Model                             12         50  1.65913011E-04                            1_GWF-(1,21499)
 Model                             13         50 -4.22055360E-05                            1_GWF-(1,21303)
 Model                             14         27  2.25620842E-05                            1_GWF-(1,24673)
 Model                             15          1 -6.60010112E-07       *                    1_GWF-(1,26217)
 ----------------------------------------------------------------------------------------------------------


 15 CALLS TO NUMERICAL SOLUTION IN TIME STEP 1 STRESS PERIOD 1
 678 TOTAL ITERATIONS

 SLN_1 INNER ITERATION SUMMARY
 --------------------------------------------------------------------------------------------------------------------------------------
      TOTAL      OUTER      INNER                                                            MAXIMUM                                   
  ITERATION  ITERATION  ITERATION  MAXIMUM CHANGE      MAXIMUM CHANGE MODEL-(CELLID)        RESIDUAL    MAXIMUM RESIDUAL MODEL-(CELLID)
 --------------------------------------------------------------------------------------------------------------------------------------
          1          1          1      -11.761770                    1_GWF-(1,12785)      0.32866106                    1_GWF-(1,11169)
          2          1          2       5.5357571                    1_GWF-(1,26601)     -0.22660170                    1_GWF-(1,11169)
          3          1          3       5.7765477                    1_GWF-(1,26565)     -0.13984774                    1_GWF-(1,11178)
          4          1          4       5.9289272                    1_GWF-(1,26512)      0.16225789                    1_GWF-(1,11178)
          5          1          5       5.6206013                    1_GWF-(1,26611)     -0.12316400                    1_GWF-(1,11180)
          6          1          6       5.9607761                    1_GWF-(1,26649)     -0.11605550                    1_GWF-(1,11157)
          7          1          7       4.8635825                    1_GWF-(1,26622) -6.89480070E-02                    1_GWF-(1,11158)
          8          1          8       3.9292819                    1_GWF-(1,26665) -6.89861566E-02                    1_GWF-(1,11180)
          9          1          9      -3.2788137                    1_GWF-(1,26665)  5.24517429E-02                    1_GWF-(1,11051)
         10          1         10      -2.8660226                    1_GWF-(1,26666) -5.58301887E-02                    1_GWF-(1,11158)
         11          1         11       2.5935509                    1_GWF-(1,26544) -5.92352576E-02                    1_GWF-(1,11180)
         12          1         12      -2.8629354                    1_GWF-(1,26622)  3.97755267E-02                    1_GWF-(1,11058)
         13          1         13      -3.4336067                    1_GWF-(1,26649)  4.33616341E-02                    1_GWF-(1,11180)
         14          1         14      -2.6194244                    1_GWF-(1,26622) -4.10138189E-02                    1_GWF-(1,11180)
         15          1         15      -1.7547913                    1_GWF-(1,26623)  2.85663860E-02                    1_GWF-(1,11026)
         16          1         16       1.4086073                    1_GWF-(1,26623)  4.87752436E-02                    1_GWF-(1,11180)
         17          1         17       1.6542204                    1_GWF-(1,26665)  4.00170290E-02                    1_GWF-(1,11051)
         18          1         18       2.0232976                    1_GWF-(1,26588) -3.40054300E-02                    1_GWF-(1,11194)
         19          1         19      -2.1565165                    1_GWF-(1,26588)  3.98460223E-02                    1_GWF-(1,11180)
         20          1         20      -1.7677846                    1_GWF-(1,26543) -2.48397642E-02                    1_GWF-(1,11104)
         21          1         21      -1.3851808                    1_GWF-(1,26544) -2.95154761E-02                    1_GWF-(1,11194)
         22          1         22      -1.6770663                    1_GWF-(1,26486)  3.21001555E-02                    1_GWF-(1,11180)
         23          1         23      -2.0829271                    1_GWF-(1,26487) -2.59434234E-02                    1_GWF-(1,11106)
         24          1         24      -2.2659681                    1_GWF-(1,26486) -2.95423307E-02                    1_GWF-(1,11194)
         25          1         25       1.9312945                    1_GWF-(1,26420) -3.53829617E-02                    1_GWF-(1,11109)
         26          1         26       2.1077059                    1_GWF-(1,26487)  2.80304725E-02                    1_GWF-(1,11151)
         27          1         27       1.8230911                    1_GWF-(1,26420) -2.77628271E-02                    1_GWF-(1,11101)
         28          1         28       1.2246690                    1_GWF-(1,26487) -3.14786135E-02                    1_GWF-(1,11109)
         29          1         29      0.88971955                    1_GWF-(1,26420)  3.31732156E-02                    1_GWF-(1,11109)
         30          1         30     -0.87876738                    1_GWF-(1,26420)  3.43563562E-02                    1_GWF-(1,11110)
         31          1         31      -1.1878453                    1_GWF-(1,26422)  2.77949683E-02                    1_GWF-(1,11105)
         32          1         32      -1.3035894                    1_GWF-(1,26350)  2.41602525E-02                     1_GWF-(1,5617)
         33          1         33      -1.4197858                    1_GWF-(1,26422)  2.89598578E-02                    1_GWF-(1,11110)
         34          1         34      -1.2082948                    1_GWF-(1,26350)  2.77938457E-02                    1_GWF-(1,11105)
         35          1         35     -0.95651873                    1_GWF-(1,26422) -3.53467657E-02                    1_GWF-(1,11105)
         36          1         36      0.86841393                    1_GWF-(1,20921) -3.96574956E-02                    1_GWF-(1,11114)
         37          1         37     -0.98463584                    1_GWF-(1,25240)  2.75968783E-02                    1_GWF-(1,11114)
         38          1         38      -1.0769105                    1_GWF-(1,25322)  3.22533881E-02                    1_GWF-(1,11103)
         39          1         39      -1.1733395                    1_GWF-(1,25455) -3.62512791E-02                    1_GWF-(1,11096)
         40          1         40      -1.1418106                    1_GWF-(1,20223)  3.73479984E-02                    1_GWF-(1,15107)
         41          1         41      -1.2164425                    1_GWF-(1,21381)  3.88058415E-02                    1_GWF-(1,11093)
         42          1         42      -1.4558603                    1_GWF-(1,21458) -4.25279947E-02                    1_GWF-(1,11093)
         43          1         43      -1.7926657                    1_GWF-(1,21487) -4.80001235E-02                    1_GWF-(1,11094)
         44          1         44      -1.9396409                    1_GWF-(1,21417)  4.88619982E-02                    1_GWF-(1,15107)
         45          1         45      -1.5880847                    1_GWF-(1,21435)  3.54160428E-02                    1_GWF-(1,11091)
         46          1         46      -1.3122734                    1_GWF-(1,20572)  3.13406139E-02                    1_GWF-(1,11093)
         47          1         47      -1.2597833                    1_GWF-(1,20920)  2.89302784E-02                    1_GWF-(1,11094)
         48          1         48      -1.2124057                    1_GWF-(1,26218) -2.58475071E-02                    1_GWF-(1,11094)
         49          1         49      -1.2086682                    1_GWF-(1,26217) -2.42389951E-02                    1_GWF-(1,11091)
         50          1         50      -1.3978655                    1_GWF-(1,26218)  2.01806160E-02                    1_GWF-(1,14801)
         51          2          1      -20.957886                    1_GWF-(1,26519) -8.83734170E-02                    1_GWF-(1,26519)
         52          2          2      -8.1027947                    1_GWF-(1,26569) -3.51362261E-02                    1_GWF-(1,26516)
         53          2          3      -4.1575204                    1_GWF-(1,26637)  2.18666352E-02                    1_GWF-(1,26516)
         54          2          4      -4.0989891                    1_GWF-(1,26665) -1.53854153E-02                    1_GWF-(1,26519)
         55          2          5      -2.7282887                    1_GWF-(1,26648)  1.25109547E-02                    1_GWF-(1,14799)
         56          2          6      -2.0403622                    1_GWF-(1,26586)  1.28909343E-02                    1_GWF-(1,14801)
         57          2          7      -1.8287443                    1_GWF-(1,26543)  1.14525152E-02                    1_GWF-(1,14799)
         58          2          8      -1.6977811                    1_GWF-(1,26486)  1.20551708E-02                    1_GWF-(1,14801)
         59          2          9      -1.4407111                    1_GWF-(1,26487)  1.04802445E-02                    1_GWF-(1,14799)
         60          2         10      -1.3993928                    1_GWF-(1,26218)  1.02033630E-02                    1_GWF-(1,14801)
         61          2         11      -1.3987032                    1_GWF-(1,26422)  9.19125052E-03                    1_GWF-(1,14801)
         62          2         12      -1.1403040                    1_GWF-(1,26217)  8.21568351E-03                    1_GWF-(1,14799)
         63          2         13      -1.0442812                    1_GWF-(1,26218)  8.52520660E-03                    1_GWF-(1,14801)
         64          2         14     -0.68099370                    1_GWF-(1,26649)  7.71125601E-03                    1_GWF-(1,14801)
         65          2         15     -0.62685177                    1_GWF-(1,26622)  7.56558756E-03                    1_GWF-(1,14801)
         66          2         16      0.95693734                    1_GWF-(1,26420)  8.09345889E-03                    1_GWF-(1,14801)
         67          2         17       1.2556955                    1_GWF-(1,26350)  7.53353960E-03                    1_GWF-(1,14799)
         68          2         18      0.96933641                    1_GWF-(1,26217)  7.94619696E-03                    1_GWF-(1,14801)
         69          2         19      0.70963454                    1_GWF-(1,26218)  7.98283599E-03                    1_GWF-(1,14801)
         70          2         20      0.51899116                    1_GWF-(1,26486)  7.60606549E-03                    1_GWF-(1,14801)
         71          2         21      0.83708373                    1_GWF-(1,26588)  8.12849444E-03                    1_GWF-(1,14801)
         72          2         22      0.93421798                    1_GWF-(1,26543)  7.72915038E-03                    1_GWF-(1,14801)
         73          2         23      0.60544040                    1_GWF-(1,25712)  8.05834305E-03                    1_GWF-(1,14801)
         74          2         24     -0.62981831                    1_GWF-(1,26422)  9.19856788E-03                    1_GWF-(1,14801)
         75          2         25     -0.85855921                    1_GWF-(1,26486)  9.23745568E-03                    1_GWF-(1,14799)
         76          2         26     -0.92908180                    1_GWF-(1,26487)  9.89365882E-03                    1_GWF-(1,14801)
         77          2         27     -0.59287512                    1_GWF-(1,26420)  1.00924873E-02                    1_GWF-(1,14801)
         78          2         28      0.32770713                    1_GWF-(1,25453)  9.83043323E-03                    1_GWF-(1,14799)
         79          2         29      0.38329962                    1_GWF-(1,26487)  1.06626400E-02                    1_GWF-(1,14801)
         80          2         30      0.40064733                    1_GWF-(1,26420)  1.02332787E-02                    1_GWF-(1,14799)
         81          2         31      0.34440643                    1_GWF-(1,25266)  1.09171973E-02                    1_GWF-(1,14801)
         82          2         32     -0.32805383                    1_GWF-(1,26157)  1.05682538E-02                    1_GWF-(1,14799)
         83          2         33     -0.30193027                    1_GWF-(1,26150)  1.03353490E-02                    1_GWF-(1,14801)
         84          2         34      0.26096575                    1_GWF-(1,26586)  8.97828484E-03                    1_GWF-(1,14799)
         85          2         35      0.33219542                    1_GWF-(1,26623)  8.29010306E-03                    1_GWF-(1,14801)
         86          2         36      0.27253547                    1_GWF-(1,26649)  6.72762756E-03                    1_GWF-(1,14799)
         87          2         37     -0.32848762                    1_GWF-(1,26350)  6.76301743E-03                    1_GWF-(1,14801)
         88          2         38     -0.31714768                    1_GWF-(1,26422)  6.50045451E-03                    1_GWF-(1,14801)
         89          2         39     -0.35170953                    1_GWF-(1,26649)  6.86206194E-03                    1_GWF-(1,14799)
         90          2         40     -0.39118272                    1_GWF-(1,26422)  7.39812491E-03                    1_GWF-(1,14801)
         91          2         41     -0.27717826                    1_GWF-(1,26420)  7.36833775E-03                    1_GWF-(1,14799)
         92          2         42      0.31403789                    1_GWF-(1,26350)  8.01134771E-03                    1_GWF-(1,14801)
         93          2         43     -0.29382754                    1_GWF-(1,26350)  7.43721480E-03                    1_GWF-(1,14799)
         94          2         44      0.34906930                    1_GWF-(1,21278)  7.64003292E-03                    1_GWF-(1,14801)
         95          2         45      0.41053583                    1_GWF-(1,21264)  6.46114613E-03                    1_GWF-(1,26625)
         96          2         46      0.43014356                    1_GWF-(1,20917)  4.54253568E-03                    1_GWF-(1,14801)
         97          2         47      0.36211357                    1_GWF-(1,20232) -3.33279116E-03                    1_GWF-(1,15940)
         98          2         48     -0.31332468                    1_GWF-(1,26665)  7.51358709E-03                    1_GWF-(1,26625)
         99          2         49     -0.32447445                    1_GWF-(1,21377) -6.37701260E-03                    1_GWF-(1,26625)
        100          2         50     -0.41092890                    1_GWF-(1,21349)  6.27358614E-03                    1_GWF-(1,15109)
        101          3          1      -1.0077471                    1_GWF-(1,16214) -4.06192786E-03                    1_GWF-(1,11460)
        102          3          2     -0.56764802                    1_GWF-(1,16200)  3.51749466E-03                    1_GWF-(1,15109)
        103          3          3     -0.38201182                    1_GWF-(1,16233)  4.88179523E-03                    1_GWF-(1,15108)
        104          3          4     -0.32588680                    1_GWF-(1,16536) -4.84288262E-03                    1_GWF-(1,15108)
        105          3          5     -0.26353841                    1_GWF-(1,21263) -3.62478207E-03                    1_GWF-(1,15109)
        106          3          6     -0.27307833                    1_GWF-(1,21260) -2.85483845E-03                    1_GWF-(1,15108)
        107          3          7      0.24011668                    1_GWF-(1,16538)  2.34750897E-03                    1_GWF-(1,15107)
        108          3          8      0.17594440                    1_GWF-(1,16545)  2.27502822E-03                    1_GWF-(1,11460)
        109          3          9     -0.17175588                    1_GWF-(1,16537)  2.29711858E-03                    1_GWF-(1,14799)
        110          3         10     -0.21300599                    1_GWF-(1,16542)  2.95862605E-03                    1_GWF-(1,14801)
        111          3         11     -0.19401987                    1_GWF-(1,16569)  3.35587107E-03                    1_GWF-(1,14799)
        112          3         12      0.18631928                    1_GWF-(1,26350)  2.90581532E-03                    1_GWF-(1,15108)
        113          3         13      0.21494646                    1_GWF-(1,26422) -2.55293200E-03                    1_GWF-(1,15108)
        114          3         14      0.23039256                    1_GWF-(1,26350)  2.13116774E-03                    1_GWF-(1,15108)
        115          3         15      0.19041278                    1_GWF-(1,26422)  1.80981368E-03                    1_GWF-(1,14801)
        116          3         16     -0.13857871                    1_GWF-(1,26422)  1.75672262E-03                    1_GWF-(1,14799)
        117          3         17     -0.10941355                    1_GWF-(1,26350)  1.89501490E-03                    1_GWF-(1,15108)
        118          3         18      0.14010829                    1_GWF-(1,11576)  2.40862063E-03                    1_GWF-(1,14936)
        119          3         19     -0.11745767                    1_GWF-(1,26586)  3.49555547E-03                    1_GWF-(1,14801)
        120          3         20     -0.12106363                    1_GWF-(1,16116)  4.50776925E-03                    1_GWF-(1,14799)
        121          3         21     -0.12020633                    1_GWF-(1,16803)  4.01926363E-03                    1_GWF-(1,14801)
        122          3         22     -0.11788904                    1_GWF-(1,11714)  3.40658570E-03                    1_GWF-(1,14799)
        123          3         23     -0.10948690                    1_GWF-(1,25444)  2.76615254E-03                    1_GWF-(1,15107)
        124          3         24     -0.10793283                    1_GWF-(1,25492)  2.45739682E-03                    1_GWF-(1,14801)
        125          3         25      0.16624516                    1_GWF-(1,26487)  2.16199384E-03                    1_GWF-(1,14801)
        126          3         26      0.19786839                    1_GWF-(1,26420)  1.77388539E-03                    1_GWF-(1,14801)
        127          3         27      0.20970192                    1_GWF-(1,26487)  2.08668183E-03                    1_GWF-(1,15109)
        128          3         28      0.14341169                    1_GWF-(1,26420)  2.75432292E-03                    1_GWF-(1,15107)
        129          3         29     -0.11952746                    1_GWF-(1,25720) -2.03068441E-03                    1_GWF-(1,15107)
        130          3         30     -0.15268785                    1_GWF-(1,26588)  1.80428984E-03                    1_GWF-(1,15107)
        131          3         31     -0.18207858                    1_GWF-(1,26543)  2.10427464E-03                    1_GWF-(1,14801)
        132          3         32     -0.15997746                    1_GWF-(1,26588)  2.15170721E-03                    1_GWF-(1,14799)
        133          3         33     -0.13860835                    1_GWF-(1,26543)  2.72737686E-03                    1_GWF-(1,15107)
        134          3         34     -0.14109750                    1_GWF-(1,26350) -3.11903842E-03                    1_GWF-(1,15107)
        135          3         35     -0.14679044                    1_GWF-(1,24856)  2.81128264E-03                    1_GWF-(1,15107)
        136          3         36     -0.14598859                    1_GWF-(1,21486)  1.47877979E-03                    1_GWF-(1,10342)
        137          3         37      0.13950732                    1_GWF-(1,26666)  1.84933742E-03                    1_GWF-(1,14938)
        138          3         38      0.14392036                    1_GWF-(1,26622)  3.33691068E-03                    1_GWF-(1,15107)
        139          3         39      0.12680364                    1_GWF-(1,26649)  2.17828317E-03                    1_GWF-(1,14938)
        140          3         40     -0.13642554                    1_GWF-(1,26649)  2.10635702E-03                    1_GWF-(1,14801)
        141          3         41      0.14199518                    1_GWF-(1,26665)  2.35534628E-03                    1_GWF-(1,14801)
        142          3         42     -0.18223625                    1_GWF-(1,26665) -2.94051622E-03                    1_GWF-(1,15107)
        143          3         43     -0.12920819                    1_GWF-(1,26666)  3.25583836E-03                    1_GWF-(1,15107)
        144          3         44  9.97439615E-02                    1_GWF-(1,26543)  2.10431869E-03                    1_GWF-(1,14938)
        145          3         45      0.11245608                    1_GWF-(1,26588)  3.13852391E-03                    1_GWF-(1,15107)
        146          3         46      0.11263606                    1_GWF-(1,26648)  1.56769989E-03                    1_GWF-(1,14938)
        147          3         47      0.11968964                    1_GWF-(1,26649)  1.76540438E-03                    1_GWF-(1,15109)
        148          3         48     -0.10220987                    1_GWF-(1,26218)  2.18918814E-03                    1_GWF-(1,15108)
        149          3         49 -9.57353892E-02                    1_GWF-(1,26217)  2.61999534E-03                    1_GWF-(1,14801)
        150          3         50     -0.12773343                    1_GWF-(1,26649)  3.95374391E-03                    1_GWF-(1,15107)
        151          4          1  8.14345160E-02                    1_GWF-(1,26218)  2.73557757E-03                    1_GWF-(1,14938)
        152          4          2 -8.18339684E-02                    1_GWF-(1,26218)  3.14266539E-03                    1_GWF-(1,15107)
        153          4          3 -8.90845180E-02                    1_GWF-(1,26217) -2.16299032E-03                    1_GWF-(1,15107)
        154          4          4 -9.39658247E-02                    1_GWF-(1,26218)  2.24077944E-03                    1_GWF-(1,15107)
        155          4          5 -7.31458107E-02                    1_GWF-(1,26217)  1.26377178E-03                    1_GWF-(1,14938)
        156          4          6 -7.08663618E-02                    1_GWF-(1,26218)  8.47177560E-04                    1_GWF-(1,15107)
        157          4          7  7.62851365E-02                    1_GWF-(1,26665)  8.53231720E-04                    1_GWF-(1,10342)
        158          4          8  6.12966835E-02                    1_GWF-(1,26647)  1.10821664E-03                    1_GWF-(1,14801)
        159          4          9  8.26259791E-02                    1_GWF-(1,26665)  1.18296086E-03                    1_GWF-(1,14801)
        160          4         10 -8.22519463E-02                    1_GWF-(1,26665)  1.17680606E-03                    1_GWF-(1,14799)
        161          4         11  6.79420811E-02                    1_GWF-(1,26665)  7.40988197E-04                    1_GWF-(1,14801)
        162          4         12 -6.91620382E-02                    1_GWF-(1,26649)  1.16758722E-03                    1_GWF-(1,15107)
        163          4         13 -6.61293301E-02                    1_GWF-(1,26622)  1.08511413E-03                    1_GWF-(1,14938)
        164          4         14  5.58073788E-02                    1_GWF-(1,25272)  9.44841954E-04                    1_GWF-(1,15107)
        165          4         15  5.53635497E-02                    1_GWF-(1,26666)  6.87677541E-04                    1_GWF-(1,10342)
        166          4         16  6.34903312E-02                    1_GWF-(1,21411)  6.43877917E-04                    1_GWF-(1,15109)
        167          4         17  6.06084214E-02                    1_GWF-(1,21405)  1.02925505E-03                    1_GWF-(1,15107)
        168          4         18  5.28479913E-02                    1_GWF-(1,24704)  1.20624216E-03                    1_GWF-(1,14799)
        169          4         19  5.38482914E-02                    1_GWF-(1,26588)  1.27433684E-03                    1_GWF-(1,14801)
        170          4         20  5.11290778E-02                    1_GWF-(1,26543)  1.03854048E-03                    1_GWF-(1,14799)
        171          4         21 -4.79559423E-02                    1_GWF-(1,26486)  7.39417294E-04                    1_GWF-(1,14801)
        172          4         22 -5.00402574E-02                    1_GWF-(1,26487)  1.14621488E-03                    1_GWF-(1,15107)
        173          4         23 -4.98931291E-02                    1_GWF-(1,26486)  1.12561676E-03                    1_GWF-(1,14938)
        174          4         24 -5.31365783E-02                    1_GWF-(1,26487)  1.14794085E-03                    1_GWF-(1,15107)
        175          4         25 -4.90604069E-02                    1_GWF-(1,26588)  5.55016444E-04                    1_GWF-(1,14799)
        176          4         26  4.91256359E-02                    1_GWF-(1,26420)  7.02322466E-04                    1_GWF-(1,14801)
        177          4         27  3.61400045E-02                    1_GWF-(1,26487)  1.44793015E-03                    1_GWF-(1,15107)
        178          4         28  2.89800062E-02                    1_GWF-(1,11744)  1.25936186E-03                    1_GWF-(1,14799)
        179          4         29  3.60506868E-02                    1_GWF-(1,26543)  1.92828232E-03                    1_GWF-(1,15107)
        180          4         30  3.68702963E-02                    1_GWF-(1,26586)  1.35636620E-03                    1_GWF-(1,14938)
        181          4         31  3.70469802E-02                    1_GWF-(1,26623)  1.64462149E-03                    1_GWF-(1,15107)
        182          4         32  3.10354351E-02                    1_GWF-(1,26586) -1.36634958E-03                    1_GWF-(1,15107)
        183          4         33  2.43784969E-02                    1_GWF-(1,26421)  1.87848802E-03                    1_GWF-(1,15107)
        184          4         34  3.14265452E-02                    1_GWF-(1,26350)  9.63937311E-04                    1_GWF-(1,14938)
        185          4         35  3.68635664E-02                    1_GWF-(1,26422)  7.04301536E-04                    1_GWF-(1,14798)
        186          4         36  3.37019875E-02                    1_GWF-(1,26350)  6.12213322E-04                    1_GWF-(1,14801)
        187          4         37 -4.17005728E-02                    1_GWF-(1,26350)  7.94915628E-04                    1_GWF-(1,14801)
        188          4         38 -4.67097763E-02                    1_GWF-(1,26422)  1.16397872E-03                    1_GWF-(1,15107)
        189          4         39 -4.97936546E-02                    1_GWF-(1,26350) -1.09211880E-03                    1_GWF-(1,15107)
        190          4         40 -5.23285365E-02                    1_GWF-(1,26422)  1.33233772E-03                    1_GWF-(1,15107)
        191          4         41 -4.03452686E-02                    1_GWF-(1,26350)  7.27692202E-04                    1_GWF-(1,14938)
        192          4         42 -2.88349967E-02                    1_GWF-(1,26422)  8.97487690E-04                    1_GWF-(1,15107)
        193          4         43 -2.16331058E-02                    1_GWF-(1,16545)  4.11982754E-04                    1_GWF-(1,15939)
        194          4         44 -2.57581548E-02                    1_GWF-(1,16538)  5.03416090E-04                    1_GWF-(1,15109)
        195          4         45 -2.72271715E-02                    1_GWF-(1,16237) -3.88178626E-04                    1_GWF-(1,15109)
        196          4         46 -2.32101445E-02                    1_GWF-(1,16230)  5.16677995E-04                    1_GWF-(1,14799)
        197          4         47  2.92589622E-02                    1_GWF-(1,16536)  6.19503775E-04                    1_GWF-(1,14801)
        198          4         48  3.48643984E-02                    1_GWF-(1,16192)  6.88950612E-04                    1_GWF-(1,14799)
        199          4         49  4.17104055E-02                    1_GWF-(1,16200)  9.31524535E-04                    1_GWF-(1,15107)
        200          4         50  3.50530522E-02                    1_GWF-(1,14464) -1.94301142E-03                    1_GWF-(1,15107)
        201          5          1 -5.49816543E-02                    1_GWF-(1,16203)  1.09985049E-03                    1_GWF-(1,15107)
        202          5          2 -3.14808337E-02                    1_GWF-(1,11421) -1.25648290E-03                    1_GWF-(1,15107)
        203          5          3 -2.76697937E-02                    1_GWF-(1,16236)  1.24930173E-03                    1_GWF-(1,15107)
        204          5          4 -2.40320131E-02                    1_GWF-(1,16583) -7.78675986E-04                    1_GWF-(1,15107)
        205          5          5 -2.38453119E-02                    1_GWF-(1,20233)  5.44032900E-04                    1_GWF-(1,15107)
        206          5          6 -1.96574004E-02                    1_GWF-(1,26486) -3.65821682E-04                    1_GWF-(1,15107)
        207          5          7  1.59305316E-02                    1_GWF-(1,11426) -3.96461751E-04                    1_GWF-(1,11460)
        208          5          8 -1.38519560E-02                    1_GWF-(1,16734)  4.25785197E-04                    1_GWF-(1,14798)
        209          5          9  1.68465849E-02                    1_GWF-(1,20572)  3.66187868E-04                    1_GWF-(1,14938)
        210          5         10  1.80711559E-02                    1_GWF-(1,26350)  7.11416629E-04                    1_GWF-(1,15107)
        211          5         11  1.95655068E-02                    1_GWF-(1,26422) -6.07073256E-04                    1_GWF-(1,15107)
        212          5         12  2.01930248E-02                    1_GWF-(1,26350)  8.94917233E-04                    1_GWF-(1,15107)
        213          5         13  2.29017698E-02                    1_GWF-(1,26422)  5.50759221E-04                    1_GWF-(1,14938)
        214          5         14  2.24531836E-02                    1_GWF-(1,26544)  5.00763212E-04                    1_GWF-(1,15107)
        215          5         15  2.34907314E-02                    1_GWF-(1,26486)  3.90973236E-04                    1_GWF-(1,14798)
        216          5         16  1.80810244E-02                    1_GWF-(1,26649)  3.95855176E-04                    1_GWF-(1,14799)
        217          5         17  1.78544265E-02                    1_GWF-(1,26486)  6.37176813E-04                    1_GWF-(1,15107)
        218          5         18  1.39345320E-02                    1_GWF-(1,26588)  2.86061549E-04                    1_GWF-(1,14801)
        219          5         19 -1.45273733E-02                    1_GWF-(1,26588)  2.71020543E-04                    1_GWF-(1,14799)
        220          5         20  1.34501377E-02                    1_GWF-(1,26422)  5.70425078E-04                    1_GWF-(1,15107)
        221          5         21 -1.49046529E-02                    1_GWF-(1,26623)  5.82192281E-04                    1_GWF-(1,14938)
        222          5         22 -1.51566495E-02                    1_GWF-(1,25290)  8.48852391E-04                    1_GWF-(1,15107)
        223          5         23 -1.26892618E-02                    1_GWF-(1,25279) -7.56175266E-04                    1_GWF-(1,15107)
        224          5         24 -1.08522119E-02                    1_GWF-(1,26544)  8.44520496E-04                    1_GWF-(1,15107)
        225          5         25 -1.26155197E-02                    1_GWF-(1,26486) -6.08303560E-04                    1_GWF-(1,15107)
        226          5         26 -1.56810947E-02                    1_GWF-(1,26487)  2.37197046E-04                    1_GWF-(1,11460)
        227          5         27  1.68129390E-02                    1_GWF-(1,26622)  5.11206920E-04                    1_GWF-(1,15107)
        228          5         28  1.34416024E-02                    1_GWF-(1,26649)  4.51318895E-04                    1_GWF-(1,14938)
        229          5         29 -1.03278794E-02                    1_GWF-(1,24717)  5.50333766E-04                    1_GWF-(1,15107)
        230          5         30 -1.20926405E-02                    1_GWF-(1,24958) -4.85490604E-04                    1_GWF-(1,15107)
        231          5         31 -1.29085035E-02                    1_GWF-(1,24767)  5.97717749E-04                    1_GWF-(1,15107)
        232          5         32 -1.41644816E-02                    1_GWF-(1,24665)  3.36174598E-04                    1_GWF-(1,14799)
        233          5         33 -1.63104639E-02                    1_GWF-(1,24702)  3.04708574E-04                    1_GWF-(1,15107)
        234          5         34 -1.60250471E-02                    1_GWF-(1,24701)  1.57276052E-04                    1_GWF-(1,14800)
        235          5         35  1.40743757E-02                    1_GWF-(1,26543)  2.39638689E-04                    1_GWF-(1,11460)
        236          5         36  1.72153923E-02                    1_GWF-(1,26588)  2.62932326E-04                    1_GWF-(1,15107)
        237          5         37 -1.48097024E-02                    1_GWF-(1,21420) -2.89971191E-04                    1_GWF-(1,15107)
        238          5         38 -1.33991028E-02                    1_GWF-(1,24313)  3.08730381E-04                    1_GWF-(1,15107)
        239          5         39 -1.11016250E-02                    1_GWF-(1,24345)  1.95549346E-04                    1_GWF-(1,14798)
        240          5         40 -1.51720874E-02                    1_GWF-(1,26665) -2.03955050E-04                    1_GWF-(1,15107)
        241          5         41 -1.42479870E-02                    1_GWF-(1,26666)  2.50502801E-04                    1_GWF-(1,15107)
        242          5         42 -1.44573797E-02                    1_GWF-(1,26665)  2.78676704E-04                    1_GWF-(1,14801)
        243          5         43 -1.02358177E-02                    1_GWF-(1,26666)  2.04835234E-04                    1_GWF-(1,14799)
        244          5         44 -9.53845125E-03                    1_GWF-(1,26665)  2.31781245E-04                    1_GWF-(1,11460)
        245          5         45  1.13904659E-02                    1_GWF-(1,26218)  1.93848044E-04                    1_GWF-(1,14938)
        246          5         46  9.48984299E-03                    1_GWF-(1,26217)  3.85539030E-04                    1_GWF-(1,15107)
        247          5         47 -1.02155182E-02                    1_GWF-(1,26217) -3.62416808E-04                    1_GWF-(1,15107)
        248          5         48 -1.02847760E-02                    1_GWF-(1,26218)  4.53655661E-04                    1_GWF-(1,15107)
        249          5         49  1.00762014E-02                    1_GWF-(1,26218) -3.05905881E-04                    1_GWF-(1,15107)
        250          5         50  1.01607041E-02                    1_GWF-(1,26217)  3.79849736E-04                    1_GWF-(1,15107)
        251          6          1 -8.84294582E-03                    1_GWF-(1,11459) -6.64398533E-04                    1_GWF-(1,11459)
        252          6          2 -6.99375174E-03                    1_GWF-(1,26218)  4.85316280E-04                    1_GWF-(1,15107)
        253          6          3  1.23147297E-02                    1_GWF-(1,26218)  6.44747457E-04                    1_GWF-(1,11459)
        254          6          4 -1.02011831E-02                    1_GWF-(1,26218) -3.70004807E-04                    1_GWF-(1,11459)
        255          6          5  7.69255251E-03                    1_GWF-(1,21678)  1.15014915E-04                    1_GWF-(1,14938)
        256          6          6  9.68155149E-03                    1_GWF-(1,11456)  1.97892286E-04                    1_GWF-(1,11459)
        257          6          7 -7.36862212E-03                    1_GWF-(1,26217) -2.19871988E-04                    1_GWF-(1,11459)
        258          6          8  7.07700589E-03                    1_GWF-(1,21666)  1.27585959E-04                    1_GWF-(1,14799)
        259          6          9  1.02463460E-02                    1_GWF-(1,11456)  1.97749647E-04                    1_GWF-(1,15107)
        260          6         10  9.01676376E-03                    1_GWF-(1,26666) -1.43905282E-04                    1_GWF-(1,15107)
        261          6         11  9.05024216E-03                    1_GWF-(1,26665)  9.68724256E-05                    1_GWF-(1,14798)
        262          6         12  1.09228682E-02                    1_GWF-(1,11456)  1.85337119E-04                    1_GWF-(1,15107)
        263          6         13  7.50864094E-03                    1_GWF-(1,24313) -1.80158050E-04                    1_GWF-(1,15107)
        264          6         14  7.53261942E-03                    1_GWF-(1,21421)  1.85817916E-04                    1_GWF-(1,15107)
        265          6         15  1.16343897E-02                    1_GWF-(1,11456)  1.14008908E-04                    1_GWF-(1,14938)
        266          6         16  6.76529179E-03                    1_GWF-(1,21413)  8.31189257E-05                    1_GWF-(1,15107)
        267          6         17 -8.08102609E-03                    1_GWF-(1,11456)  1.44677974E-04                    1_GWF-(1,15107)
        268          6         18  1.22572226E-02                    1_GWF-(1,11456)  1.59687965E-04                    1_GWF-(1,14799)
        269          6         19  5.55028456E-03                    1_GWF-(1,24678)  2.71734324E-04                    1_GWF-(1,15107)
        270          6         20 -6.47873637E-03                    1_GWF-(1,11456) -2.00051894E-04                    1_GWF-(1,15107)
        271          6         21  1.18605422E-02                    1_GWF-(1,11456)  2.09590385E-04                    1_GWF-(1,15107)
        272          6         22 -7.72428789E-03                    1_GWF-(1,11456) -1.67162325E-04                    1_GWF-(1,15107)
        273          6         23  3.61633271E-03                    1_GWF-(1,26487)  1.91472875E-04                    1_GWF-(1,15107)
        274          6         24  8.26466650E-03                    1_GWF-(1,11456)  5.60888482E-05                    1_GWF-(1,14824)
        275          6         25  6.54490036E-03                    1_GWF-(1,26487) -1.60286609E-04                    1_GWF-(1,15107)
        276          6         26 -6.94440911E-03                    1_GWF-(1,11456)  2.36863284E-04                    1_GWF-(1,15107)
        277          6         27  1.04994597E-02                    1_GWF-(1,11456) -1.90990912E-04                    1_GWF-(1,15107)
        278          6         28 -5.38379274E-03                    1_GWF-(1,11456)  2.52670053E-04                    1_GWF-(1,15107)
        279          6         29  4.27383855E-03                    1_GWF-(1,26649)  1.37312349E-04                    1_GWF-(1,14938)
        280          6         30  8.54670932E-03                    1_GWF-(1,11456)  1.09134828E-04                    1_GWF-(1,15107)
        281          6         31  6.19878384E-03                    1_GWF-(1,26649)  5.87630132E-05                    1_GWF-(1,14798)
        282          6         32  5.28012695E-03                    1_GWF-(1,26622) -1.08299643E-04                    1_GWF-(1,15107)
        283          6         33  6.82457234E-03                    1_GWF-(1,11456)  1.38833756E-04                    1_GWF-(1,15107)
        284          6         34 -4.02592732E-03                    1_GWF-(1,26623)  7.56321572E-05                    1_GWF-(1,14799)
        285          6         35 -4.82973926E-03                    1_GWF-(1,11456)  6.59955700E-05                    1_GWF-(1,14801)
        286          6         36  6.63705710E-03                    1_GWF-(1,11456)  8.99929649E-05                    1_GWF-(1,14801)
        287          6         37 -4.41921564E-03                    1_GWF-(1,26350)  9.60875974E-05                    1_GWF-(1,14938)
        288          6         38 -5.08726022E-03                    1_GWF-(1,26422)  1.76566979E-04                    1_GWF-(1,15107)
        289          6         39  6.29809925E-03                    1_GWF-(1,11456)  1.05559094E-04                    1_GWF-(1,14938)
        290          6         40 -4.24853223E-03                    1_GWF-(1,26422)  1.15851296E-04                    1_GWF-(1,15107)
        291          6         41 -3.76550924E-03                    1_GWF-(1,26350) -5.47853668E-05                    1_GWF-(1,11455)
        292          6         42  4.68038631E-03                    1_GWF-(1,11456)  6.85741298E-05                    1_GWF-(1,14801)
        293          6         43 -4.37540366E-03                    1_GWF-(1,11456)  8.66149171E-05                    1_GWF-(1,11455)
        294          6         44 -2.28240279E-03                    1_GWF-(1,16540) -9.58253900E-05                    1_GWF-(1,11455)
        295          6         45  2.75867864E-03                    1_GWF-(1,11456)  9.37502034E-05                    1_GWF-(1,15107)
        296          6         46 -4.22920594E-03                    1_GWF-(1,11456) -1.30851625E-04                    1_GWF-(1,15107)
        297          6         47  3.38821414E-03                    1_GWF-(1,16538)  1.56398516E-04                    1_GWF-(1,15107)
        298          6         48  3.69573092E-03                    1_GWF-(1,16194) -1.36249256E-04                    1_GWF-(1,15107)
        299          6         49  3.75470028E-03                    1_GWF-(1,16113)  1.61017632E-04                    1_GWF-(1,15107)
        300          6         50  4.14502213E-03                    1_GWF-(1,11456) -2.14390712E-04                    1_GWF-(1,11455)
        301          7          1 -8.59468766E-03                    1_GWF-(1,11456) -9.05331254E-05                    1_GWF-(1,11456)
        302          7          2 -3.69747368E-03                    1_GWF-(1,16231) -1.45633991E-04                    1_GWF-(1,15107)
        303          7          3  2.94970700E-03                    1_GWF-(1,11455)  1.80428608E-04                    1_GWF-(1,15107)
        304          7          4 -3.09341157E-03                    1_GWF-(1,16580) -8.84614453E-05                    1_GWF-(1,15107)
        305          7          5 -4.13369547E-03                    1_GWF-(1,11455)  5.44540008E-05                    1_GWF-(1,15107)
        306          7          6  5.53910892E-03                    1_GWF-(1,11455) -4.06190990E-05                    1_GWF-(1,15107)
        307          7          7  3.62241027E-03                    1_GWF-(1,11380)  3.38150012E-05                    1_GWF-(1,14802)
        308          7          8 -1.83680314E-03                    1_GWF-(1,19052)  4.90063452E-05                    1_GWF-(1,14801)
        309          7          9  3.88052989E-03                    1_GWF-(1,11455)  4.27827536E-05                    1_GWF-(1,14938)
        310          7         10 -4.40919380E-03                    1_GWF-(1,11455)  8.79523307E-05                    1_GWF-(1,15107)
        311          7         11 -3.91395470E-03                    1_GWF-(1,11380)  7.23635163E-05                    1_GWF-(1,14938)
        312          7         12  2.42614995E-03                    1_GWF-(1,26350)  1.02050609E-04                    1_GWF-(1,15107)
        313          7         13  2.96547353E-03                    1_GWF-(1,26422) -6.55577207E-05                    1_GWF-(1,15107)
        314          7         14 -3.25599380E-03                    1_GWF-(1,11380)  5.79199356E-05                    1_GWF-(1,15107)
        315          7         15  2.17327245E-03                    1_GWF-(1,26623)  4.47098882E-05                    1_GWF-(1,14798)
        316          7         16  1.78468008E-03                    1_GWF-(1,26586)  4.83267693E-05                    1_GWF-(1,14799)
        317          7         17 -2.03674192E-03                    1_GWF-(1,11380)  7.00724560E-05                    1_GWF-(1,15107)
        318          7         18 -2.07954868E-03                    1_GWF-(1,26623) -5.49500170E-05                    1_GWF-(1,15107)
        319          7         19 -2.48355592E-03                    1_GWF-(1,26622)  2.38382411E-05                    1_GWF-(1,14798)
        320          7         20 -2.85131331E-03                    1_GWF-(1,26649)  3.23265470E-05                    1_GWF-(1,15107)
        321          7         21 -2.32677220E-03                    1_GWF-(1,26622)  5.77789050E-05                    1_GWF-(1,14938)
        322          7         22 -1.99409313E-03                    1_GWF-(1,26649)  1.10449114E-04                    1_GWF-(1,15107)
        323          7         23 -1.77116335E-03                    1_GWF-(1,26486) -7.15075550E-05                    1_GWF-(1,15107)
        324          7         24 -1.80499083E-03                    1_GWF-(1,26487)  5.38356385E-05                    1_GWF-(1,15107)
        325          7         25 -2.42606375E-03                    1_GWF-(1,26420)  2.71520706E-05                    1_GWF-(1,14801)
        326          7         26 -2.58036428E-03                    1_GWF-(1,26487) -3.80511629E-05                    1_GWF-(1,15107)
        327          7         27 -2.00754864E-03                    1_GWF-(1,26420)  8.59586747E-05                    1_GWF-(1,15107)
        328          7         28 -1.33211273E-03                    1_GWF-(1,24419) -5.26881863E-05                    1_GWF-(1,15107)
        329          7         29 -1.40718355E-03                    1_GWF-(1,24429)  4.03346865E-05                    1_GWF-(1,15107)
        330          7         30 -1.51807988E-03                    1_GWF-(1,26588)  2.33847908E-05                    1_GWF-(1,14801)
        331          7         31  1.58293618E-03                    1_GWF-(1,26588)  3.46242973E-05                    1_GWF-(1,14801)
        332          7         32  1.54551594E-03                    1_GWF-(1,26543)  7.05536735E-05                    1_GWF-(1,15107)
        333          7         33 -1.84302208E-03                    1_GWF-(1,24702) -5.34932003E-05                    1_GWF-(1,15107)
        334          7         34 -1.91702006E-03                    1_GWF-(1,24704)  6.84733345E-05                    1_GWF-(1,15107)
        335          7         35 -1.64694748E-03                    1_GWF-(1,24689)  3.51655819E-05                    1_GWF-(1,15022)
        336          7         36 -1.72105450E-03                    1_GWF-(1,21424)  3.59857859E-05                    1_GWF-(1,15107)
        337          7         37 -1.64811606E-03                    1_GWF-(1,21404) -2.69726207E-05                    1_GWF-(1,15107)
        338          7         38 -1.58366584E-03                    1_GWF-(1,24588)  2.53031521E-05                    1_GWF-(1,15107)
        339          7         39 -1.34174799E-03                    1_GWF-(1,26218)  2.48358631E-05                    1_GWF-(1,11459)
        340          7         40 -1.53522538E-03                    1_GWF-(1,26665) -3.02739856E-05                    1_GWF-(1,15107)
        341          7         41 -1.63879614E-03                    1_GWF-(1,26666)  2.41162081E-05                    1_GWF-(1,15107)
        342          7         42 -1.74819054E-03                    1_GWF-(1,26665)  2.75619953E-05                    1_GWF-(1,11459)
        343          7         43 -1.33218809E-03                    1_GWF-(1,26666) -2.73154790E-05                    1_GWF-(1,11459)
        344          7         44 -1.08066627E-03                    1_GWF-(1,26665)  1.75104693E-05                    1_GWF-(1,15107)
        345          7         45  1.35322742E-03                    1_GWF-(1,26218)  2.70434017E-05                    1_GWF-(1,11459)
        346          7         46  1.20694784E-03                    1_GWF-(1,26217)  4.90067892E-05                    1_GWF-(1,15107)
        347          7         47  1.33069917E-03                    1_GWF-(1,26218) -4.74069261E-05                    1_GWF-(1,15107)
        348          7         48 -1.24918333E-03                    1_GWF-(1,26218)  5.91796837E-05                    1_GWF-(1,15107)
        349          7         49  1.20913550E-03                    1_GWF-(1,26218) -3.77198105E-05                    1_GWF-(1,11459)
        350          7         50  1.22803466E-03                    1_GWF-(1,26217)  4.17072544E-05                    1_GWF-(1,15107)
        351          8          1 -4.46144509E-03                    1_GWF-(1,11460) -3.84790369E-05                    1_GWF-(1,11455)
        352          8          2 -2.64633166E-03                    1_GWF-(1,11439)  5.52811314E-05                    1_GWF-(1,15107)
        353          8          3  1.83535476E-03                    1_GWF-(1,11439) -4.38617282E-05                    1_GWF-(1,15107)
        354          8          4  1.93526931E-03                    1_GWF-(1,11460)  2.67371305E-05                    1_GWF-(1,15107)
        355          8          5 -2.85306082E-03                    1_GWF-(1,11439)  1.41490261E-05                    1_GWF-(1,14938)
        356          8          6  2.67519255E-03                    1_GWF-(1,11380)  1.35669556E-05                    1_GWF-(1,11455)
        357          8          7  2.41722161E-03                    1_GWF-(1,11460) -1.31455706E-05                    1_GWF-(1,11455)
        358          8          8 -1.70578264E-03                    1_GWF-(1,11380)  1.42756712E-05                    1_GWF-(1,14801)
        359          8          9  2.35689132E-03                    1_GWF-(1,11380)  2.01987577E-05                    1_GWF-(1,15107)
        360          8         10  1.59317252E-03                    1_GWF-(1,11460) -1.64634727E-05                    1_GWF-(1,15107)
        361          8         11 -1.54870002E-03                    1_GWF-(1,11380)  7.18894646E-06                    1_GWF-(1,14798)
        362          8         12  2.12285064E-03                    1_GWF-(1,11380)  1.48910145E-05                    1_GWF-(1,15107)
        363          8         13  1.51196302E-03                    1_GWF-(1,11460) -1.82933351E-05                    1_GWF-(1,15107)
        364          8         14 -1.50894291E-03                    1_GWF-(1,11460)  2.53922314E-05                    1_GWF-(1,15107)
        365          8         15  1.75724195E-03                    1_GWF-(1,11380) -2.16009446E-05                    1_GWF-(1,15107)
        366          8         16 -9.35221886E-04                    1_GWF-(1,11380)  3.48668611E-05                    1_GWF-(1,15107)
        367          8         17 -1.17149271E-03                    1_GWF-(1,11460) -2.40732727E-05                    1_GWF-(1,15107)
        368          8         18  9.26950893E-04                    1_GWF-(1,11380)  2.00097261E-05                    1_GWF-(1,15107)
        369          8         19  8.29107965E-04                    1_GWF-(1,26622)  1.57150177E-05                    1_GWF-(1,14801)
        370          8         20 -7.79783569E-04                    1_GWF-(1,11460) -1.66570834E-05                    1_GWF-(1,15107)
        371          8         21  7.87645423E-04                    1_GWF-(1,11380)  2.17937074E-05                    1_GWF-(1,15107)
        372          8         22  6.56056104E-04                    1_GWF-(1,11460) -2.27064059E-05                    1_GWF-(1,15107)
        373          8         23 -7.46716932E-04                    1_GWF-(1,11460)  2.92007166E-05                    1_GWF-(1,15107)
        374          8         24  6.48442037E-04                    1_GWF-(1,11380)  1.22076582E-05                    1_GWF-(1,14938)
        375          8         25 -7.59098333E-04                    1_GWF-(1,26588)  8.30198212E-06                    1_GWF-(1,14801)
        376          8         26  6.78765842E-04                    1_GWF-(1,26588)  1.76222955E-05                    1_GWF-(1,15107)
        377          8         27  6.08333625E-04                    1_GWF-(1,11380) -1.97360710E-05                    1_GWF-(1,15107)
        378          8         28  6.00588882E-04                    1_GWF-(1,26588)  2.95837953E-05                    1_GWF-(1,15107)
        379          8         29  5.68321786E-04                    1_GWF-(1,26649)  1.58510404E-05                    1_GWF-(1,14938)
        380          8         30  5.56082825E-04                    1_GWF-(1,26648)  7.71161762E-06                    1_GWF-(1,10342)
        381          8         31  5.67077420E-04                    1_GWF-(1,26649)  6.99537756E-06                    1_GWF-(1,14801)
        382          8         32  6.16357347E-04                    1_GWF-(1,26487) -1.19499742E-05                    1_GWF-(1,15107)
        383          8         33 -4.82918044E-04                    1_GWF-(1,26487)  1.32521036E-05                    1_GWF-(1,15107)
        384          8         34 -5.34267421E-04                    1_GWF-(1,26486)  7.18879920E-06                    1_GWF-(1,14799)
        385          8         35 -4.59933268E-04                    1_GWF-(1,26544)  9.92116089E-06                    1_GWF-(1,14801)
        386          8         36 -5.53683692E-04                    1_GWF-(1,26486)  1.10235176E-05                    1_GWF-(1,14801)
        387          8         37 -5.31039903E-04                    1_GWF-(1,26350) -1.06461388E-05                    1_GWF-(1,15107)
        388          8         38 -6.35196194E-04                    1_GWF-(1,26422)  1.88786521E-05                    1_GWF-(1,15107)
        389          8         39 -5.72832906E-04                    1_GWF-(1,26350)  1.37471733E-05                    1_GWF-(1,14938)
        390          8         40 -5.10908661E-04                    1_GWF-(1,26422)  1.30092552E-05                    1_GWF-(1,15107)
        391          8         41 -4.30971486E-04                    1_GWF-(1,26350)  6.28435430E-06                    1_GWF-(1,15109)
        392          8         42 -4.67550727E-04                    1_GWF-(1,11466)  8.37728040E-06                    1_GWF-(1,15107)
        393          8         43  3.60858818E-04                    1_GWF-(1,11466)  8.51428169E-06                    1_GWF-(1,14801)
        394          8         44 -4.20393316E-04                    1_GWF-(1,11460) -8.70661212E-06                    1_GWF-(1,15107)
        395          8         45  3.25584237E-04                    1_GWF-(1,26486)  1.20652186E-05                    1_GWF-(1,15107)
        396          8         46  3.39647250E-04                    1_GWF-(1,11466) -1.31516576E-05                    1_GWF-(1,15107)
        397          8         47  4.06745085E-04                    1_GWF-(1,16538)  1.75332051E-05                    1_GWF-(1,15107)
        398          8         48  4.28406104E-04                    1_GWF-(1,16237) -1.67498757E-05                    1_GWF-(1,15107)
        399          8         49  4.17259046E-04                    1_GWF-(1,16230)  1.95611346E-05                    1_GWF-(1,15107)
        400          8         50 -3.97462254E-04                    1_GWF-(1,11466) -2.10913857E-05                    1_GWF-(1,15107)
        401          9          1  4.14978202E-04                    1_GWF-(1,11460)  1.84038936E-05                    1_GWF-(1,15107)
        402          9          2 -4.04405407E-04                    1_GWF-(1,16230)  1.24037503E-05                    1_GWF-(1,14938)
        403          9          3 -4.10206742E-04                    1_GWF-(1,16236)  1.20030359E-05                    1_GWF-(1,15107)
        404          9          4 -3.38696402E-04                    1_GWF-(1,16538)  9.80520736E-06                    1_GWF-(1,14799)
        405          9          5 -3.33169044E-04                    1_GWF-(1,20233)  7.93557908E-06                    1_GWF-(1,15107)
        406          9          6 -2.77770731E-04                    1_GWF-(1,20228)  5.31941953E-06                    1_GWF-(1,14802)
        407          9          7  3.13180122E-04                    1_GWF-(1,11460)  7.84060842E-06                    1_GWF-(1,14799)
        408          9          8 -2.51260552E-04                    1_GWF-(1,26588)  7.44331549E-06                    1_GWF-(1,15107)
        409          9          9 -2.87155001E-04                    1_GWF-(1,26622)  4.06566666E-06                    1_GWF-(1,14802)
        410          9         10  2.91388637E-04                    1_GWF-(1,26486)  3.32171170E-06                    1_GWF-(1,14823)
        411          9         11  3.01031632E-04                    1_GWF-(1,26487)  6.13035948E-06                    1_GWF-(1,15107)
        412          9         12  3.06297604E-04                    1_GWF-(1,26486)  6.51017726E-06                    1_GWF-(1,14938)
        413          9         13  2.72955338E-04                    1_GWF-(1,26544)  9.55473568E-06                    1_GWF-(1,15107)
        414          9         14  2.75432646E-04                    1_GWF-(1,26422)  8.14151830E-06                    1_GWF-(1,14938)
        415          9         15  2.51550914E-04                    1_GWF-(1,26350)  1.11238753E-05                    1_GWF-(1,15107)
        416          9         16 -2.53860708E-04                    1_GWF-(1,26350) -6.71684026E-06                    1_GWF-(1,15107)
        417          9         17 -2.43165394E-04                    1_GWF-(1,26422)  5.37591082E-06                    1_GWF-(1,14801)
        418          9         18  2.30361498E-04                    1_GWF-(1,26422)  4.46963168E-06                    1_GWF-(1,14798)
        419          9         19 -1.89196026E-04                     1_GWF-(1,8188) -6.38544952E-06                    1_GWF-(1,15107)
        420          9         20 -2.99009172E-04                    1_GWF-(1,26649)  7.39128691E-06                    1_GWF-(1,15107)
        421          9         21 -3.11702103E-04                    1_GWF-(1,26622)  6.23286288E-06                    1_GWF-(1,14938)
        422          9         22 -3.00406648E-04                    1_GWF-(1,26486)  3.55662421E-06                    1_GWF-(1,15107)
        423          9         23 -2.57486123E-04                    1_GWF-(1,26544)  6.16639464E-06                    1_GWF-(1,15107)
        424          9         24 -2.54569450E-04                    1_GWF-(1,26486) -7.26661540E-06                    1_GWF-(1,15107)
        425          9         25 -1.66905559E-04                    1_GWF-(1,24742)  9.03639173E-06                    1_GWF-(1,15107)
        426          9         26  2.09841216E-04                     1_GWF-(1,8339) -5.68825067E-06                    1_GWF-(1,15107)
        427          9         27  1.87946649E-04                    1_GWF-(1,26588)  5.07355055E-06                    1_GWF-(1,15107)
        428          9         28 -1.79844155E-04                    1_GWF-(1,26420)  5.20220203E-06                    1_GWF-(1,14798)
        429          9         29  1.94439570E-04                    1_GWF-(1,26420) -5.93218140E-06                    1_GWF-(1,15107)
        430          9         30 -1.86034061E-04                    1_GWF-(1,24961)  6.42481486E-06                    1_GWF-(1,15107)
        431          9         31  2.05010595E-04                    1_GWF-(1,11460)  5.41616519E-06                    1_GWF-(1,14938)
        432          9         32 -1.89972631E-04                    1_GWF-(1,24679)  6.40986845E-06                    1_GWF-(1,15107)
        433          9         33 -2.19981070E-04                    1_GWF-(1,26665)  3.68246120E-06                    1_GWF-(1,14796)
        434          9         34  2.44037315E-04                    1_GWF-(1,26665)  3.92430164E-06                    1_GWF-(1,14938)
        435          9         35 -2.22347910E-04                    1_GWF-(1,26665)  8.25792926E-06                    1_GWF-(1,15107)
        436          9         36 -1.90102815E-04                    1_GWF-(1,21424) -6.52782819E-06                    1_GWF-(1,15107)
        437          9         37  2.55341540E-04                    1_GWF-(1,11460)  6.65268981E-06                    1_GWF-(1,15107)
        438          9         38 -1.95290667E-04                    1_GWF-(1,24313) -4.78735379E-06                    1_GWF-(1,15107)
        439          9         39 -1.65110233E-04                    1_GWF-(1,24586)  5.65691109E-06                    1_GWF-(1,15107)
        440          9         40  2.15658266E-04                    1_GWF-(1,11460) -4.80530161E-06                    1_GWF-(1,15107)
        441          9         41 -2.40201436E-04                    1_GWF-(1,11460)  3.06660704E-06                    1_GWF-(1,14801)
        442          9         42 -1.99210556E-04                    1_GWF-(1,11439)  2.53457128E-06                    1_GWF-(1,14798)
        443          9         43 -1.69286936E-04                     1_GWF-(1,8444)  2.16003501E-06                    1_GWF-(1,14801)
        444          9         44 -1.76284994E-04                    1_GWF-(1,11460)  3.99253063E-06                    1_GWF-(1,15107)
        445          9         45 -2.69350692E-04                    1_GWF-(1,11439)  3.23950191E-06                    1_GWF-(1,14938)
        446          9         46  3.08382693E-04                    1_GWF-(1,11439)  5.80647831E-06                    1_GWF-(1,15107)
        447          9         47  1.84139864E-04                    1_GWF-(1,15167) -5.92036633E-06                    1_GWF-(1,15107)
        448          9         48 -1.86553272E-04                    1_GWF-(1,11380)  7.02179533E-06                    1_GWF-(1,15107)
        449          9         49  1.59415730E-04                    1_GWF-(1,11439)  2.21791711E-06                    1_GWF-(1,14938)
        450          9         50  2.80398087E-04                    1_GWF-(1,11460)  2.63726188E-06                    1_GWF-(1,11455)
        451         10          1 -2.27509474E-04                    1_GWF-(1,11460)  1.83322757E-06                    1_GWF-(1,14799)
        452         10          2 -1.59747985E-04                    1_GWF-(1,26588)  2.20669808E-06                    1_GWF-(1,14802)
        453         10          3  2.13887786E-04                    1_GWF-(1,11460)  3.19409342E-06                    1_GWF-(1,14801)
        454         10          4  2.10837917E-04                    1_GWF-(1,11439)  2.27108700E-06                    1_GWF-(1,14801)
        455         10          5 -2.59799101E-04                    1_GWF-(1,11439)  1.88906646E-06                    1_GWF-(1,15107)
        456         10          6  1.18650082E-04                    1_GWF-(1,11439)  2.37087597E-06                    1_GWF-(1,15939)
        457         10          7  1.11674059E-04                    1_GWF-(1,21671) -1.96650716E-06                    1_GWF-(1,15939)
        458         10          8 -1.31057020E-04                    1_GWF-(1,11439)  2.09117332E-06                    1_GWF-(1,15939)
        459         10          9 -1.22160031E-04                    1_GWF-(1,11460)  1.81782686E-06                    1_GWF-(1,14801)
        460         10         10  1.21118488E-04                    1_GWF-(1,20578)  1.89228304E-06                    1_GWF-(1,14801)
        461         10         11  1.04042619E-04                    1_GWF-(1,20915)  1.16272402E-06                    1_GWF-(1,14796)
        462         10         12  1.07092780E-04                    1_GWF-(1,26218)  8.10083944E-07                    1_GWF-(1,11455)
        463         10         13  1.16748021E-04                    1_GWF-(1,24586)  1.27135853E-06                    1_GWF-(1,14801)
        464         10         14  1.11046554E-04                    1_GWF-(1,26487)  1.08957522E-06                    1_GWF-(1,14799)
        465         10         15  1.02682088E-04                    1_GWF-(1,21424)  1.18909366E-06                    1_GWF-(1,14844)
        466         10         16  9.56661932E-05                    1_GWF-(1,21435)  1.51906215E-06                    1_GWF-(1,14801)
        467         10         17  1.06252592E-04                    1_GWF-(1,24689)  1.72139554E-06                    1_GWF-(1,14801)
        468         10         18  9.58984931E-05                    1_GWF-(1,24703)  2.06268132E-06                    1_GWF-(1,14796)
        469         10         19  8.59089024E-05                    1_GWF-(1,24678)  1.98703443E-06                    1_GWF-(1,14801)
        470         10         20  7.34764594E-05                    1_GWF-(1,25036)  2.01234713E-06                    1_GWF-(1,14801)
        471         10         21  7.50383353E-05                    1_GWF-(1,24961) -1.50948044E-06                    1_GWF-(1,15939)
        472         10         22  6.53629822E-05                    1_GWF-(1,24983)  1.43493973E-06                    1_GWF-(1,14798)
        473         10         23  7.61652411E-05                    1_GWF-(1,26665)  1.80165965E-06                    1_GWF-(1,14801)
        474         10         24 -9.03634229E-05                    1_GWF-(1,26665)  1.02663173E-06                    1_GWF-(1,15107)
        475         10         25 -7.69736225E-05                     1_GWF-(1,8339)  1.15089194E-06                    1_GWF-(1,15939)
        476         10         26 -6.96243792E-05                     1_GWF-(1,8336)  1.28509505E-06                    1_GWF-(1,14801)
        477         10         27  6.13237670E-05                    1_GWF-(1,26543)  1.52814173E-06                    1_GWF-(1,15939)
        478         10         28  9.81036137E-05                    1_GWF-(1,26588)  1.24407613E-06                    1_GWF-(1,15107)
        479         10         29  9.04409652E-05                    1_GWF-(1,26543)  1.02300164E-06                    1_GWF-(1,10342)
        480         10         30  8.99861033E-05                    1_GWF-(1,26588)  1.05198338E-06                    1_GWF-(1,14801)
        481         10         31  7.05654799E-05                    1_GWF-(1,26543) -1.28613999E-06                    1_GWF-(1,15939)
        482         10         32  4.83809238E-05                     1_GWF-(1,8017)  1.48687438E-06                    1_GWF-(1,15939)
        483         10         33 -4.70443579E-05                    1_GWF-(1,11460)  1.37646031E-06                    1_GWF-(1,14801)
        484         10         34 -5.05241522E-05                    1_GWF-(1,26543)  1.36272416E-06                    1_GWF-(1,15939)
        485         10         35 -6.06896698E-05                    1_GWF-(1,26588) -1.25725191E-06                    1_GWF-(1,15939)
        486         10         36 -7.12709544E-05                    1_GWF-(1,26622)  1.40325409E-06                    1_GWF-(1,14801)
        487         10         37 -7.46824850E-05                    1_GWF-(1,26623)  8.70157188E-07                    1_GWF-(1,14801)
        488         10         38 -6.21694884E-05                    1_GWF-(1,26486) -1.63420733E-06                    1_GWF-(1,15939)
        489         10         39 -4.63530088E-05                    1_GWF-(1,11460)  1.18537121E-06                    1_GWF-(1,15939)
        490         10         40  5.33610709E-05                    1_GWF-(1,11460) -1.16859001E-06                    1_GWF-(1,15939)
        491         10         41 -5.30104341E-05                    1_GWF-(1,20584)  8.31697218E-07                    1_GWF-(1,14802)
        492         10         42 -4.80020765E-05                    1_GWF-(1,20575)  9.02413792E-07                    1_GWF-(1,14801)
        493         10         43  5.07675542E-05                    1_GWF-(1,11460)  1.20754774E-06                    1_GWF-(1,14801)
        494         10         44  4.10385002E-05                    1_GWF-(1,11380)  7.13895293E-07                    1_GWF-(1,14824)
        495         10         45  6.26844793E-05                    1_GWF-(1,26422)  7.93218318E-07                    1_GWF-(1,14837)
        496         10         46  7.37375176E-05                    1_GWF-(1,26350)  1.19915577E-06                    1_GWF-(1,14801)
        497         10         47  7.87809516E-05                    1_GWF-(1,26422)  1.17066876E-06                    1_GWF-(1,14799)
        498         10         48  6.81820076E-05                    1_GWF-(1,26350)  8.93065130E-07                    1_GWF-(1,15939)
        499         10         49  5.73016022E-05                    1_GWF-(1,26422) -7.68767226E-07                    1_GWF-(1,11455)
        500         10         50  4.61249549E-05                    1_GWF-(1,16114)  9.77113951E-07                    1_GWF-(1,11455)
        501         11          1 -4.93908466E-05                    1_GWF-(1,11380) -7.28785429E-07                    1_GWF-(1,11455)
        502         11          2 -6.09829612E-05                    1_GWF-(1,26486)  6.44070916E-07                    1_GWF-(1,15107)
        503         11          3 -5.50973103E-05                    1_GWF-(1,26487)  8.99937387E-07                    1_GWF-(1,14799)
        504         11          4 -6.20542109E-05                    1_GWF-(1,26486)  9.53257481E-07                    1_GWF-(1,14799)
        505         11          5 -5.68466052E-05                    1_GWF-(1,26487)  6.59112535E-07                    1_GWF-(1,14801)
        506         11          6 -5.53391236E-05                    1_GWF-(1,26420)  8.52911252E-07                    1_GWF-(1,11455)
        507         11          7 -4.53444186E-05                    1_GWF-(1,26422)  7.26902422E-07                    1_GWF-(1,14799)
        508         11          8  3.06334253E-05                    1_GWF-(1,26422)  9.77753496E-07                    1_GWF-(1,14801)
        509         11          9  3.62696775E-05                    1_GWF-(1,11380)  8.76111448E-07                    1_GWF-(1,11455)
        510         11         10 -3.79400739E-05                    1_GWF-(1,11380) -5.42799824E-07                    1_GWF-(1,11455)
        511         11         11  2.92387444E-05                    1_GWF-(1,26350)  6.27597790E-07                    1_GWF-(1,14801)
        512         11         12  2.92277042E-05                    1_GWF-(1,26422)  8.50524969E-07                    1_GWF-(1,11455)
        513         11         13 -3.57505734E-05                    1_GWF-(1,11380)  6.26979092E-07                    1_GWF-(1,14802)
        514         11         14  2.95947086E-05                    1_GWF-(1,26422)  8.47214118E-07                    1_GWF-(1,14801)
        515         11         15  3.19979509E-05                    1_GWF-(1,26623)  7.08570556E-07                    1_GWF-(1,14798)
        516         11         16 -3.26498635E-05                    1_GWF-(1,11380) -6.56461885E-07                    1_GWF-(1,11455)
        517         11         17 -2.91988262E-05                     1_GWF-(1,8091)  8.43307959E-07                    1_GWF-(1,14801)
        518         11         18 -2.51618991E-05                     1_GWF-(1,8092)  4.83038887E-07                    1_GWF-(1,14799)
        519         11         19 -2.53078903E-05                    1_GWF-(1,11380) -6.65240566E-07                    1_GWF-(1,11455)
        520         11         20  3.24195363E-05                    1_GWF-(1,11380)  5.27168639E-07                    1_GWF-(1,14801)
        521         11         21 -3.51867425E-05                    1_GWF-(1,26665)  4.75366730E-07                    1_GWF-(1,15107)
        522         11         22 -3.27159251E-05                    1_GWF-(1,26666) -5.35642758E-07                    1_GWF-(1,11455)
        523         11         23 -2.96772992E-05                    1_GWF-(1,26588)  4.14821065E-07                    1_GWF-(1,14802)
        524         11         24 -2.42437216E-05                    1_GWF-(1,26486)  6.55842153E-07                    1_GWF-(1,14801)
        525         11         25  2.39177090E-05                     1_GWF-(1,8338) -4.65544203E-07                    1_GWF-(1,11455)
        526         11         26  2.83885741E-05                     1_GWF-(1,8339)  4.08322920E-07                    1_GWF-(1,14823)
        527         11         27  2.74931213E-05                    1_GWF-(1,26622)  7.26795055E-07                    1_GWF-(1,14801)
        528         11         28 -2.12992819E-05                    1_GWF-(1,11380)  6.72893467E-07                    1_GWF-(1,14799)
        529         11         29 -2.33337525E-05                    1_GWF-(1,24429)  4.32746522E-07                    1_GWF-(1,14798)
        530         11         30 -2.43305049E-05                    1_GWF-(1,24961)  6.02273742E-07                    1_GWF-(1,14801)
[...]
        538         11         38 -2.31221851E-05                    1_GWF-(1,24586)  4.58978921E-07                    1_GWF-(1,15107)
        539         11         39 -2.57733353E-05                    1_GWF-(1,26487)  4.09468102E-07                    1_GWF-(1,11455)
        540         11         40 -2.91514548E-05                    1_GWF-(1,26420)  3.59291381E-07                    1_GWF-(1,14801)
        541         11         41 -2.94925402E-05                    1_GWF-(1,26487)  4.72767266E-07                    1_GWF-(1,14801)
        542         11         42 -2.10752594E-05                    1_GWF-(1,26486)  4.81186953E-07                    1_GWF-(1,11455)
        543         11         43 -2.11197423E-05                    1_GWF-(1,11380)  4.18804591E-07                    1_GWF-(1,15107)
        544         11         44  2.58080302E-05                    1_GWF-(1,11439)  2.87681078E-07                    1_GWF-(1,14936)
        545         11         45 -3.61382295E-05                    1_GWF-(1,11439)  4.35245751E-07                    1_GWF-(1,11455)
        546         11         46  2.17197365E-05                    1_GWF-(1,26217) -4.25635370E-07                    1_GWF-(1,11455)
        547         11         47  2.30555249E-05                    1_GWF-(1,11380)  5.82344840E-07                    1_GWF-(1,14801)
        548         11         48 -3.45303952E-05                    1_GWF-(1,11439)  4.20943327E-07                    1_GWF-(1,14798)
        549         11         49 -3.36344714E-05                    1_GWF-(1,11460) -5.10135465E-07                    1_GWF-(1,11455)
        550         11         50  5.40028376E-05                    1_GWF-(1,11460)  4.07912997E-07                    1_GWF-(1,14801)
        551         12          1 -5.01525239E-05                    1_GWF-(1,11460)  3.36556475E-07                    1_GWF-(1,15022)
        552         12          2 -2.75536487E-05                    1_GWF-(1,11439)  6.38201657E-07                    1_GWF-(1,15107)
        553         12          3  2.92382015E-05                    1_GWF-(1,11439) -6.78898076E-07                    1_GWF-(1,15107)
        554         12          4 -1.92422123E-05                    1_GWF-(1,11380)  6.59050645E-07                    1_GWF-(1,15107)
        555         12          5 -2.08614015E-05                    1_GWF-(1,11439)  2.46503651E-07                    1_GWF-(1,14938)
        556         12          6  1.71662196E-05                    1_GWF-(1,11439)  2.43398740E-07                    1_GWF-(1,14938)
        557         12          7 -1.32184854E-05                    1_GWF-(1,11380)  5.88682492E-07                    1_GWF-(1,15107)
        558         12          8 -2.02549596E-05                    1_GWF-(1,11439) -4.53500567E-07                    1_GWF-(1,15107)
        559         12          9  1.92685255E-05                    1_GWF-(1,11439)  4.45433023E-07                    1_GWF-(1,15107)
        560         12         10  1.52523089E-05                    1_GWF-(1,20578) -3.84534984E-07                    1_GWF-(1,15107)
        561         12         11  1.27176052E-05                    1_GWF-(1,20232)  1.60229831E-07                    1_GWF-(1,14796)
        562         12         12  1.34146313E-05                    1_GWF-(1,21429)  1.75072613E-07                    1_GWF-(1,11455)
        563         12         13  1.54917793E-05                    1_GWF-(1,24586) -2.37745949E-07                    1_GWF-(1,15107)
        564         12         14  1.42400850E-05                    1_GWF-(1,21419)  3.87558876E-07                    1_GWF-(1,15107)
        565         12         15  1.29755117E-05                    1_GWF-(1,21426)  2.69955640E-07                    1_GWF-(1,14938)
        566         12         16  1.17555396E-05                    1_GWF-(1,24685)  2.35326821E-07                    1_GWF-(1,15107)
        567         12         17  1.23480334E-05                    1_GWF-(1,24689)  2.12190471E-07                    1_GWF-(1,15107)
        568         12         18  1.13055782E-05                    1_GWF-(1,24703)  2.76558477E-07                    1_GWF-(1,14796)
        569         12         19 -1.04329289E-05                    1_GWF-(1,26420)  4.38571664E-07                    1_GWF-(1,15107)
        570         12         20 -1.06990525E-05                    1_GWF-(1,26422) -2.76474128E-07                    1_GWF-(1,15107)
        571         12         21 -9.87016373E-06                    1_GWF-(1,26420)  1.71411730E-07                    1_GWF-(1,14802)
        572         12         22  8.06196136E-06                    1_GWF-(1,24961)  2.00526794E-07                    1_GWF-(1,14799)
        573         12         23 -8.49569327E-06                    1_GWF-(1,26665)  2.52301334E-07                    1_GWF-(1,14801)
        574         12         24 -8.24115426E-06                     1_GWF-(1,8474)  3.83637186E-07                    1_GWF-(1,15107)
        575         12         25 -1.00340261E-05                     1_GWF-(1,8339) -1.72940652E-07                    1_GWF-(1,15107)
        576         12         26  1.07764175E-05                    1_GWF-(1,26422)  1.86774701E-07                    1_GWF-(1,14801)
        577         12         27  1.04060780E-05                    1_GWF-(1,26350)  2.07442048E-07                    1_GWF-(1,15107)
        578         12         28 -8.72092081E-06                    1_GWF-(1,11380) -2.34864845E-07                    1_GWF-(1,15107)
        579         12         29  9.33121087E-06                    1_GWF-(1,26622)  4.03240643E-07                    1_GWF-(1,15107)
        580         12         30  9.03584894E-06                    1_GWF-(1,26649) -2.28188811E-07                    1_GWF-(1,15107)
        581         12         31  8.36092223E-06                    1_GWF-(1,26665)  1.20921242E-07                    1_GWF-(1,14802)
        582         12         32  6.34527285E-06                     1_GWF-(1,8017)  1.27547797E-07                    1_GWF-(1,14824)
        583         12         33  5.52688495E-06                     1_GWF-(1,8012) -2.20827248E-07                    1_GWF-(1,15107)
        584         12         34 -8.13034113E-06                    1_GWF-(1,11380)  4.09397441E-07                    1_GWF-(1,15107)
        585         12         35 -5.41271471E-06                    1_GWF-(1,26623) -4.10821863E-07                    1_GWF-(1,15107)
        586         12         36 -7.08801113E-06                    1_GWF-(1,26622)  4.75599352E-07                    1_GWF-(1,15107)
        587         12         37 -8.46303207E-06                    1_GWF-(1,26623) -2.43888699E-07                    1_GWF-(1,15107)
        588         12         38 -9.30323551E-06                    1_GWF-(1,26543)  1.07831369E-07                    1_GWF-(1,14824)
        589         12         39 -8.83976588E-06                    1_GWF-(1,26588)  4.30951906E-07                    1_GWF-(1,15107)
        590         12         40 -6.37720850E-06                    1_GWF-(1,11380) -4.21015562E-07                    1_GWF-(1,15107)
        591         12         41 -6.20717316E-06                    1_GWF-(1,20584)  4.97262700E-07                    1_GWF-(1,15107)
        592         12         42 -6.06360784E-06                    1_GWF-(1,20577) -4.10684642E-07                    1_GWF-(1,15107)
        593         12         43 -6.71254722E-06                    1_GWF-(1,11380)  5.09752211E-07                    1_GWF-(1,15107)
        594         12         44  4.51842936E-06                    1_GWF-(1,11380) -4.18502495E-07                    1_GWF-(1,15107)
        595         12         45  4.42372538E-06                    1_GWF-(1,16620)  3.61560688E-07                    1_GWF-(1,15107)
        596         12         46 -6.56945317E-06                    1_GWF-(1,11380) -2.15691033E-07                    1_GWF-(1,15107)
        597         12         47  5.85449041E-06                    1_GWF-(1,11380)  1.37785535E-07                    1_GWF-(1,15107)
        598         12         48  6.12730465E-06                    1_GWF-(1,16239)  1.24301232E-07                    1_GWF-(1,11455)
        599         12         49  6.34322927E-06                    1_GWF-(1,16233) -1.44915070E-07                    1_GWF-(1,11455)
        600         12         50  6.60733976E-06                    1_GWF-(1,26649) -1.35713455E-07                    1_GWF-(1,14938)
        601         13          1 -8.11401639E-06                    1_GWF-(1,26649) -1.53439498E-07                    1_GWF-(1,15107)
        602         13          2  7.10982365E-06                    1_GWF-(1,26649)  8.17705658E-08                    1_GWF-(1,15107)
        603         13          3 -6.10374271E-06                    1_GWF-(1,16239)  1.57534900E-07                    1_GWF-(1,15107)
        604         13          4 -6.02911644E-06                    1_GWF-(1,11380) -2.89690085E-07                    1_GWF-(1,15107)
        605         13          5 -5.77333690E-06                    1_GWF-(1,26420)  3.77811740E-07                    1_GWF-(1,15107)
        606         13          6 -6.05861521E-06                    1_GWF-(1,26487) -2.52035445E-07                    1_GWF-(1,15107)
        607         13          7 -6.28506081E-06                    1_GWF-(1,26588)  1.02800309E-07                    1_GWF-(1,14801)
        608         13          8 -4.52989481E-06                    1_GWF-(1,26487)  2.63044536E-07                    1_GWF-(1,15107)
        609         13          9 -4.68374735E-06                    1_GWF-(1,26588) -3.04195128E-07                    1_GWF-(1,15107)
        610         13         10  4.31380166E-06                    1_GWF-(1,11379)  3.21226852E-07                    1_GWF-(1,15107)
        611         13         11  3.66324149E-06                    1_GWF-(1,26672) -1.77052537E-07                    1_GWF-(1,15107)
        612         13         12  4.40366391E-06                    1_GWF-(1,11380)  1.57676752E-07                    1_GWF-(1,15107)
        613         13         13  5.35670502E-06                    1_GWF-(1,11379)  6.95147883E-08                    1_GWF-(1,14802)
        614         13         14 -3.85228816E-06                    1_GWF-(1,15167)  9.78677173E-08                    1_GWF-(1,14801)
        615         13         15  5.17055203E-06                    1_GWF-(1,26622)  1.89193042E-07                    1_GWF-(1,15107)
        616         13         16  5.12470003E-06                    1_GWF-(1,26623)  8.23947524E-08                    1_GWF-(1,14796)
        617         13         17  3.78308129E-06                    1_GWF-(1,26486)  7.02486217E-08                    1_GWF-(1,14801)
        618         13         18  3.78507828E-06                    1_GWF-(1,11380)  1.79396359E-07                    1_GWF-(1,15107)
        619         13         19 -3.30357246E-06                    1_GWF-(1,11380) -2.34662378E-07                    1_GWF-(1,15107)
        620         13         20 -3.70390883E-06                    1_GWF-(1,26666)  1.74103551E-07                    1_GWF-(1,15107)
        621         13         21 -5.49943242E-06                    1_GWF-(1,26665)  6.65044616E-08                    1_GWF-(1,14938)
        622         13         22 -4.44670665E-06                    1_GWF-(1,26666)  9.76799925E-08                    1_GWF-(1,14938)
        623         13         23 -3.71542156E-06                    1_GWF-(1,26665)  2.20656269E-07                    1_GWF-(1,15107)
        624         13         24  3.62992650E-06                    1_GWF-(1,11380) -2.63793073E-07                    1_GWF-(1,15107)
        625         13         25 -3.10016446E-06                    1_GWF-(1,11380)  3.30173086E-07                    1_GWF-(1,15107)
        626         13         26  4.01516721E-06                     1_GWF-(1,8339) -2.96841229E-07                    1_GWF-(1,15107)
        627         13         27  3.36777014E-06                     1_GWF-(1,8444)  3.18089028E-07                    1_GWF-(1,15107)
        628         13         28 -2.90199895E-06                    1_GWF-(1,11380) -1.58122649E-07                    1_GWF-(1,15107)
        629         13         29  3.08385247E-06                    1_GWF-(1,26487)  6.08935032E-08                    1_GWF-(1,14798)
        630         13         30  2.98208145E-06                    1_GWF-(1,26420)  1.66960621E-07                    1_GWF-(1,15107)
        631         13         31 -2.75455988E-06                    1_GWF-(1,24989) -2.29181098E-07                    1_GWF-(1,15107)
        632         13         32 -3.06645719E-06                    1_GWF-(1,24754)  2.80074041E-07                    1_GWF-(1,15107)
        633         13         33 -3.30148276E-06                    1_GWF-(1,24679) -1.82348282E-07                    1_GWF-(1,15107)
        634         13         34 -3.37309777E-06                    1_GWF-(1,24698)  1.63521093E-07                    1_GWF-(1,15107)
        635         13         35 -3.14758547E-06                    1_GWF-(1,24688)  5.72643748E-08                    1_GWF-(1,14938)
        636         13         36 -2.77915322E-06                    1_GWF-(1,21486) -5.36143086E-08                    1_GWF-(1,15107)
        637         13         37 -3.11457132E-06                    1_GWF-(1,26422)  1.43490987E-07                    1_GWF-(1,15107)
        638         13         38 -3.00366373E-06                    1_GWF-(1,26350) -1.38220582E-07                    1_GWF-(1,15107)
        639         13         39 -3.35399350E-06                    1_GWF-(1,26543)  9.38332524E-08                    1_GWF-(1,15107)
        640         13         40 -4.48853185E-06                    1_GWF-(1,26588)  3.73088790E-08                    1_GWF-(1,14823)
        641         13         41 -3.42821272E-06                    1_GWF-(1,26589) -1.36839592E-07                    1_GWF-(1,15107)
        642         13         42 -3.25258450E-06                    1_GWF-(1,26588)  1.61515500E-07                    1_GWF-(1,15107)
        643         13         43 -2.63198895E-06                    1_GWF-(1,11439) -1.03767100E-07                    1_GWF-(1,15107)
        644         13         44 -2.22348298E-06                    1_GWF-(1,26649)  5.12548108E-08                    1_GWF-(1,15107)
        645         13         45  2.88869788E-06                    1_GWF-(1,26649)  8.87490406E-08                    1_GWF-(1,15107)
        646         13         46  3.52470386E-06                    1_GWF-(1,26486) -9.72967052E-08                    1_GWF-(1,15107)
        647         13         47  2.84219835E-06                    1_GWF-(1,11439)  1.25127013E-07                    1_GWF-(1,15107)
        648         13         48 -2.59284663E-06                    1_GWF-(1,11379) -8.11214580E-08                    1_GWF-(1,15107)
        649         13         49 -3.35137497E-06                    1_GWF-(1,11439)  5.95240467E-08                    1_GWF-(1,15107)
        650         13         50  4.13461034E-06                    1_GWF-(1,11439)  3.77185754E-08                    1_GWF-(1,14823)
        651         14          1  4.29918877E-06                    1_GWF-(1,11460)  5.22988534E-08                    1_GWF-(1,14801)
        652         14          2 -2.78723152E-06                    1_GWF-(1,11460)  5.13368107E-08                    1_GWF-(1,14801)
        653         14          3 -2.45995153E-06                    1_GWF-(1,11460) -7.13393406E-08                    1_GWF-(1,11455)
        654         14          4  4.25870640E-06                    1_GWF-(1,11460)  2.79323134E-08                    1_GWF-(1,14801)
        655         14          5 -3.17381028E-06                    1_GWF-(1,26486)  4.70736634E-08                    1_GWF-(1,11455)
        656         14          6 -3.06012315E-06                    1_GWF-(1,26487) -3.92297784E-08                    1_GWF-(1,11455)
        657         14          7  2.35882874E-06                    1_GWF-(1,11460)  3.57100532E-08                    1_GWF-(1,14802)
        658         14          8  2.82500369E-06                    1_GWF-(1,11439)  4.93066944E-08                    1_GWF-(1,11455)
        659         14          9  1.99826178E-06                    1_GWF-(1,26588)  3.42437109E-08                    1_GWF-(1,14801)
        660         14         10  1.98194440E-06                    1_GWF-(1,26543)  4.40305690E-08                    1_GWF-(1,14823)
        661         14         11  2.45256722E-06                    1_GWF-(1,26588)  3.50386887E-08                    1_GWF-(1,11455)
        662         14         12  1.89831845E-06                    1_GWF-(1,26543) -2.53763866E-08                    1_GWF-(1,14823)
        663         14         13  1.78345579E-06                    1_GWF-(1,24313)  2.32564597E-08                    1_GWF-(1,14823)
        664         14         14  1.71075470E-06                    1_GWF-(1,21421)  3.19092842E-08                    1_GWF-(1,11455)
        665         14         15 -1.75914286E-06                    1_GWF-(1,26622)  3.39929813E-08                    1_GWF-(1,14801)
        666         14         16  1.75871595E-06                    1_GWF-(1,26622) -2.38248213E-08                    1_GWF-(1,11455)
        667         14         17 -1.62786247E-06                    1_GWF-(1,26622)  3.57497288E-08                    1_GWF-(1,14802)
        668         14         18  1.54367875E-06                    1_GWF-(1,26622)  4.06726228E-08                    1_GWF-(1,14801)
        669         14         19 -1.37849659E-06                    1_GWF-(1,26350)  3.41422055E-08                    1_GWF-(1,14799)
        670         14         20 -1.20865923E-06                    1_GWF-(1,26422)  3.40741443E-08                    1_GWF-(1,14802)
        671         14         21  1.19834733E-06                    1_GWF-(1,26665)  2.66946999E-08                    1_GWF-(1,14801)
        672         14         22 -1.25168008E-06                    1_GWF-(1,26665)  3.82807132E-08                    1_GWF-(1,14801)
        673         14         23 -1.12325198E-06                    1_GWF-(1,26666)  2.72355170E-08                    1_GWF-(1,14798)
        674         14         24 -1.18329438E-06                    1_GWF-(1,26665)  2.55859529E-08                    1_GWF-(1,14823)
        675         14         25 -1.27357471E-06                     1_GWF-(1,8444)  2.85857787E-08                    1_GWF-(1,14801)
        676         14         26 -1.14850081E-06                     1_GWF-(1,8333)  2.14223645E-08                    1_GWF-(1,14798)
        677         14         27  8.98149214E-07                    1_GWF-(1,26544)  2.17106758E-08                    1_GWF-(1,14802)
        678         15          1 -6.60010112E-07                    1_GWF-(1,26217)  1.65884969E-08                    1_GWF-(1,14801)
 --------------------------------------------------------------------------------------------------------------------------------------



 MEMORY MANAGER TOTAL STORAGE BY DATA TYPE, IN MEGABYTES
 -------------------------------
                    ALLOCATED   
 DATA TYPE           MEMORY     
 -------------------------------
 Character        4.66090000E-02
 Logical          4.40000000E-05
 Integer          5.2037920     
 Real             11.901376     
 -------------------------------
 Total            17.151821     
 -------------------------------


 
 Run end date and time (yyyy/mm/dd hh:mm:ss): 2022/05/24 11:59:01
 Elapsed run time:  0.652 Seconds
 Normal termination of simulation.
