                                   MODFLOW 6
                U.S. GEOLOGICAL SURVEY MODULAR HYDROLOGIC MODEL
                            VERSION 6.2.2 07/30/2021

   MODFLOW 6 compiled Jul 31 2021 14:22:53 with IFORT compiler (ver. 19.10.3)

This software has been approved for release by the U.S. Geological 
Survey (USGS). Although the software has been subjected to rigorous 
review, the USGS reserves the right to update the software as needed 
pursuant to further analysis and review. No warranty, expressed or 
implied, is made by the USGS or the U.S. Government as to the 
functionality of the software and related material nor shall the 
fact of release constitute any such warranty. Furthermore, the 
software is released on condition that neither the USGS nor the U.S. 
Government shall be held liable for any damages resulting from its 
authorized or unauthorized use. Also refer to the USGS Water 
Resources Software User Rights Notice for complete use, copyright, 
and distribution information.


System command used to initiate simulation:
mf6

MODFLOW was compiled using uniform precision.

Real Variables
  KIND: 8
  TINY (smallest non-zero value):    2.225074-308
  HUGE (largest value):    1.797693+308
  PRECISION: 15
  BIT SIZE: 64

Integer Variables
  KIND: 4
  HUGE (largest value): 2147483647
  BIT SIZE: 32

Long Integer Variables
  KIND: 8
  HUGE (largest value): 9223372036854775807
  BIT SIZE: 64

Logical Variables
  KIND: 4
  BIT SIZE: 32
 

 OPENED mfsim.nam
 FILE TYPE:NAM   UNIT 1001   STATUS:OLD                 
 FORMAT:FORMATTED              ACCESS:SEQUENTIAL          
 ACTION:READ                

 # File generated by Flopy version 3.3.5 on 04/28/2022 at 15:59:16.

 READING SIMULATION OPTIONS
 END OF SIMULATION OPTIONS

 READING SIMULATION TIMING

 OPENED mfsim.tdis
 FILE TYPE:TDIS   UNIT 1002   STATUS:OLD                 
 FORMAT:FORMATTED              ACCESS:SEQUENTIAL          
 ACTION:READ                


 TDIS -- TEMPORAL DISCRETIZATION PACKAGE,
 VERSION 1 : 11/13/2014 - INPUT READ FROM UNIT 1002
 # File generated by Flopy version 3.3.5 on 04/28/2022 at 15:59:16.
 PROCESSING TDIS OPTIONS
    SIMULATION TIME UNIT IS SECONDS
 END OF TDIS OPTIONS
 PROCESSING TDIS DIMENSIONS
    1 STRESS PERIOD(S) IN SIMULATION
 END OF TDIS DIMENSIONS
 PROCESSING TDIS PERIODDATA


 STRESS PERIOD     LENGTH       TIME STEPS     MULTIPLIER FOR DELT
 ----------------------------------------------------------------------------
        1         7.000000          1                    1.000
 END OF TDIS PERIODDATA
 END OF SIMULATION TIMING

 READING SIMULATION MODELS
    GWF6 model ML will be created as model 1
 END OF SIMULATION MODELS

 READING SIMULATION EXCHANGES
 END OF SIMULATION EXCHANGES

 READING SOLUTIONGROUP

 Creating solution: SLN_1           

 OPENED mfsim.ims
 FILE TYPE:IMS   UNIT 1015   STATUS:OLD                 
 FORMAT:FORMATTED              ACCESS:SEQUENTIAL          
 ACTION:READ                

 END OF SIMULATION SOLUTIONGROUP

 IMS -- ITERATIVE MODEL SOLUTION PACKAGE, VERSION 6, 4/28/2017
         INPUT READ FROM UNIT 1015
 # File generated by Flopy version 3.3.5 on 04/28/2022 at 15:59:16.

 PROCESSING IMS OPTIONS
 END OF IMS OPTIONS

 PROCESSING IMS NONLINEAR
 END OF IMS NONLINEAR DATA
 ***UNDER-RELAXATION WILL NOT BE USED***
 
 ***IMS LINEAR SOLVER WILL BE USED***

 IMSLINEAR -- UNSTRUCTURED LINEAR SOLUTION PACKAGE, VERSION 8, 04/28/2017

 PROCESSING LINEAR DATA
 END OF LINEAR DATA
 
 OUTER ITERATION CONVERGENCE CRITERION    (DVCLOSE) =    0.100000E-04
 MAXIMUM NUMBER OF OUTER ITERATIONS        (MXITER) = 100
 SOLVER PRINTOUT INDEX                     (IPRIMS) = 2
 NONLINEAR ITERATION METHOD            (NONLINMETH) = 0
 LINEAR SOLUTION METHOD                   (LINMETH) = 1

       SOLUTION BY THE        CONJUGATE-GRADIENT       METHOD
 ------------------------------------------------------------------
 MAXIMUM OF 100 CALLS OF SOLUTION ROUTINE
 MAXIMUM OF 50 INTERNAL ITERATIONS PER CALL TO SOLUTION ROUTINE
 LINEAR ACCELERATION METHOD            = CG        
 MATRIX PRECONDITIONING TYPE           = INCOMPLETE LU       
 MATRIX SCALING APPROACH               = NO SCALING          
 MATRIX REORDERING APPROACH            = ORIGINAL ORDERING        
 NUMBER OF ORTHOGONALIZATIONS          = 0
 HEAD CHANGE CRITERION FOR CLOSURE     =    0.10000E-05
 RESIDUAL CHANGE CRITERION FOR CLOSURE =    0.10000E-04
 RESIDUAL CONVERGENCE OPTION           = 1
 RESIDUAL CONVERGENCE NORM             = INFINITY NORM S 
 RELAXATION FACTOR                     =    0.00000E+00



 
    Solving:  Stress period:     1    Time step:     1
 
1
                            STRESS PERIOD NO. 1, LENGTH =   7.000000    
                            -----------------------------------------------
                            NUMBER OF TIME STEPS = 1
                            MULTIPLIER FOR DELT =     1.000
                            INITIAL TIME STEP SIZE =   7.000000    

 SLN_1 OUTER ITERATION SUMMARY
 ----------------------------------------------------------------------------------------------------------
                                OUTER      INNER                    STEP   MAXIMUM CHANGE MODEL-(CELLID) OR
 OUTER ITERATION STEP       ITERATION  ITERATION  MAXIMUM CHANGE SUCCESS             MODEL-PACKAGE-(NUMBER)
 ----------------------------------------------------------------------------------------------------------
 Model                              1         50       44.519706                            1_GWF-(1,26519)
 Model                              2         50      -39.555715                            1_GWF-(1,26519)
 Model                              3         50     -0.90041395                            1_GWF-(1,21054)
 Model                              4         50      0.29400681                            1_GWF-(1,25265)
 Model                              5         50 -4.40872678E-02                            1_GWF-(1,25410)
 Model                              6         50  1.76535634E-02                            1_GWF-(1,25265)
 Model                              7         50 -2.97029466E-03                            1_GWF-(1,25410)
 Model                              8         50  1.10901386E-03                            1_GWF-(1,25265)
 Model                              9         50 -1.89938986E-04                            1_GWF-(1,25411)
 Model                             10         50  7.43970989E-05                            1_GWF-(1,25265)
 Model                             11         35 -1.15250648E-05                            1_GWF-(1,21972)
 Model                             12          1  8.21104560E-07       *                    1_GWF-(1,26350)
 ----------------------------------------------------------------------------------------------------------


 12 CALLS TO NUMERICAL SOLUTION IN TIME STEP 1 STRESS PERIOD 1
 536 TOTAL ITERATIONS

 SLN_1 INNER ITERATION SUMMARY
 --------------------------------------------------------------------------------------------------------------------------------------
      TOTAL      OUTER      INNER                                                            MAXIMUM                                   
  ITERATION  ITERATION  ITERATION  MAXIMUM CHANGE      MAXIMUM CHANGE MODEL-(CELLID)        RESIDUAL    MAXIMUM RESIDUAL MODEL-(CELLID)
 --------------------------------------------------------------------------------------------------------------------------------------
          1          1          1      -11.850616                    1_GWF-(1,12785)      0.15901839                    1_GWF-(1,11171)
          2          1          2       7.7865376                    1_GWF-(1,26516)      0.21839834                    1_GWF-(1,10969)
          3          1          3       9.4367858                    1_GWF-(1,26565)      0.20941257                    1_GWF-(1,10968)
          4          1          4       8.7029081                    1_GWF-(1,26510)      0.18721930                    1_GWF-(1,10955)
          5          1          5       6.7574719                    1_GWF-(1,26647)      0.18322599                    1_GWF-(1,10869)
          6          1          6       7.1738588                    1_GWF-(1,26649)      0.14869015                    1_GWF-(1,11140)
          7          1          7       5.5567349                    1_GWF-(1,26622)      0.19829313                    1_GWF-(1,10969)
          8          1          8       4.5429418                    1_GWF-(1,26665)      0.16093129                    1_GWF-(1,10963)
          9          1          9       3.9106601                    1_GWF-(1,26647)      0.16383223                    1_GWF-(1,10956)
         10          1         10       4.5866615                    1_GWF-(1,26665)      0.16212428                    1_GWF-(1,10869)
         11          1         11       4.2136215                    1_GWF-(1,26544)      0.14053729                    1_GWF-(1,10969)
         12          1         12       3.0656217                    1_GWF-(1,26486)      0.14009421                    1_GWF-(1,10966)
         13          1         13       2.9919600                    1_GWF-(1,26622)      0.13101771                    1_GWF-(1,10962)
         14          1         14       2.4619448                    1_GWF-(1,26623)      0.12459980                    1_GWF-(1,10969)
         15          1         15       2.3115470                    1_GWF-(1,26622)      0.14162757                    1_GWF-(1,10968)
         16          1         16       1.5398169                    1_GWF-(1,26623)      0.12957443                    1_GWF-(1,10961)
         17          1         17      -1.5450627                    1_GWF-(1,26623)      0.13225792                    1_GWF-(1,10958)
         18          1         18       2.4562223                    1_GWF-(1,26588)      0.14276836                    1_GWF-(1,10969)
         19          1         19      -3.3293211                    1_GWF-(1,26588)      0.13922600                    1_GWF-(1,10968)
         20          1         20      -3.1330230                    1_GWF-(1,26543)      0.12869430                    1_GWF-(1,10963)
         21          1         21      -2.7074290                    1_GWF-(1,26544)      0.11826907                    1_GWF-(1,10958)
         22          1         22      -3.4846085                    1_GWF-(1,26486)      0.12801003                    1_GWF-(1,10969)
         23          1         23      -3.9151551                    1_GWF-(1,26487)      0.11240622                    1_GWF-(1,10965)
         24          1         24      -4.1798465                    1_GWF-(1,26486)      0.12152694                    1_GWF-(1,10963)
         25          1         25      -3.3302029                    1_GWF-(1,26487)      0.10616389                    1_GWF-(1,10955)
         26          1         26      -2.2469257                    1_GWF-(1,26588)  9.23377731E-02                    1_GWF-(1,10869)
         27          1         27       2.1982191                    1_GWF-(1,26420)      0.11367695                    1_GWF-(1,10965)
         28          1         28       1.8226119                    1_GWF-(1,26487)      0.11402559                    1_GWF-(1,10957)
         29          1         29       1.8051772                    1_GWF-(1,26420)      0.10356413                    1_GWF-(1,10872)
         30          1         30       1.9668876                    1_GWF-(1,26422)      0.10425885                    1_GWF-(1,10965)
         31          1         31       2.2445140                    1_GWF-(1,26350)      0.11726469                    1_GWF-(1,10960)
         32          1         32       2.5708284                    1_GWF-(1,26422)  9.85966882E-02                    1_GWF-(1,10958)
         33          1         33      -2.5037808                    1_GWF-(1,26422) -7.85577017E-02                    1_GWF-(1,10960)
         34          1         34       2.4070969                    1_GWF-(1,26422)  6.54379640E-02                    1_GWF-(1,10966)
         35          1         35      -2.0631633                    1_GWF-(1,26422)  7.13279826E-02                    1_GWF-(1,10958)
         36          1         36      -1.5754988                    1_GWF-(1,26350)  6.08750929E-02                    1_GWF-(1,10968)
         37          1         37      -1.2609002                    1_GWF-(1,26422) -4.64043033E-02                    1_GWF-(1,10962)
         38          1         38     -0.94734790                    1_GWF-(1,24901) -5.43851851E-02                    1_GWF-(1,10967)
         39          1         39     -0.88195293                    1_GWF-(1,24895)  4.64277081E-02                    1_GWF-(1,10968)
         40          1         40      -1.0710006                    1_GWF-(1,26648)  4.28186075E-02                    1_GWF-(1,10961)
         41          1         41      -1.4061325                    1_GWF-(1,26649)  4.61766145E-02                    1_GWF-(1,10963)
         42          1         42      -1.4900423                    1_GWF-(1,26648) -4.64106146E-02                    1_GWF-(1,10991)
         43          1         43      -1.2788030                    1_GWF-(1,26586) -5.98656581E-02                    1_GWF-(1,11138)
         44          1         44      -1.1177662                    1_GWF-(1,26623)  4.26123536E-02                    1_GWF-(1,11140)
         45          1         45      0.99523081                    1_GWF-(1,26218) -5.26429546E-02                    1_GWF-(1,11140)
         46          1         46     -0.88272473                    1_GWF-(1,21319) -4.71325003E-02                    1_GWF-(1,11138)
         47          1         47      -1.0986933                    1_GWF-(1,26217)  4.60745430E-02                    1_GWF-(1,11139)
         48          1         48      -1.4185382                    1_GWF-(1,26218)  4.75806730E-02                    1_GWF-(1,14868)
         49          1         49      -1.4752413                    1_GWF-(1,26217) -4.93580753E-02                    1_GWF-(1,10990)
         50          1         50      -1.3751995                    1_GWF-(1,26218)  4.30182812E-02                    1_GWF-(1,14868)
         51          2          1      -41.266635                    1_GWF-(1,26519)     -0.14303430                    1_GWF-(1,26519)
         52          2          2      -15.995504                    1_GWF-(1,26513) -4.50901765E-02                    1_GWF-(1,26516)
         53          2          3      -7.6174602                    1_GWF-(1,26637)  3.56211025E-02                    1_GWF-(1,26516)
         54          2          4      -9.2706200                    1_GWF-(1,26665)  3.43701898E-02                    1_GWF-(1,14868)
         55          2          5      -4.9365394                    1_GWF-(1,26622)  2.79845853E-02                    1_GWF-(1,14869)
         56          2          6      -4.7604363                    1_GWF-(1,26589)  4.20783985E-02                    1_GWF-(1,14868)
         57          2          7      -3.8482056                    1_GWF-(1,26543)  3.94385246E-02                    1_GWF-(1,14869)
         58          2          8      -3.5808571                    1_GWF-(1,26486)  6.42916844E-02                    1_GWF-(1,14868)
         59          2          9      -2.4074403                    1_GWF-(1,26487)  4.19309018E-02                    1_GWF-(1,14869)
         60          2         10      -2.2751779                    1_GWF-(1,26350)  4.08318108E-02                    1_GWF-(1,14868)
         61          2         11      -1.8818893                    1_GWF-(1,26348)  1.00578133E-02                    1_GWF-(1,14868)
         62          2         12      -1.6441769                    1_GWF-(1,26217)  2.33962996E-02                    1_GWF-(1,14869)
         63          2         13      -1.0473877                    1_GWF-(1,26218)  3.68324961E-02                    1_GWF-(1,14868)
         64          2         14     -0.69564209                    1_GWF-(1,26649)  2.99819186E-02                    1_GWF-(1,14869)
         65          2         15     -0.73990683                    1_GWF-(1,26622)  2.53125945E-02                    1_GWF-(1,14868)
         66          2         16      0.89418845                    1_GWF-(1,26420)  2.48848004E-02                    1_GWF-(1,14868)
         67          2         17       1.1705194                    1_GWF-(1,26218)  2.81858644E-02                    1_GWF-(1,14869)
         68          2         18      0.97081294                    1_GWF-(1,26217)  3.97071579E-02                    1_GWF-(1,14868)
         69          2         19      0.84842545                    1_GWF-(1,26218)  2.52664178E-02                    1_GWF-(1,14869)
         70          2         20      0.66364956                    1_GWF-(1,26543)  2.29153463E-02                    1_GWF-(1,14868)
         71          2         21      0.94318327                    1_GWF-(1,26588)  1.56816283E-02                    1_GWF-(1,14868)
         72          2         22      0.98912595                    1_GWF-(1,26543)  2.50291964E-02                    1_GWF-(1,14869)
         73          2         23     -0.62482691                    1_GWF-(1,26218)  4.55685986E-02                    1_GWF-(1,14868)
         74          2         24     -0.82157763                    1_GWF-(1,26487)  3.60561505E-02                    1_GWF-(1,14869)
         75          2         25      -1.1205516                    1_GWF-(1,26486)  3.58532015E-02                    1_GWF-(1,14868)
         76          2         26      -1.1111756                    1_GWF-(1,26487)  1.26751773E-02                    1_GWF-(1,14868)
         77          2         27     -0.71726120                    1_GWF-(1,26588)  2.79406725E-02                    1_GWF-(1,14869)
         78          2         28     -0.34767199                    1_GWF-(1,26398)  4.66781643E-02                    1_GWF-(1,14868)
         79          2         29     -0.38545913                    1_GWF-(1,26327)  4.27635351E-02                    1_GWF-(1,14869)
         80          2         30      0.35331752                    1_GWF-(1,26420)  6.52364978E-02                    1_GWF-(1,14868)
         81          2         31     -0.25448894                    1_GWF-(1,26178)  5.93853200E-02                    1_GWF-(1,14869)
         82          2         32     -0.25868674                    1_GWF-(1,26674)  8.94384991E-02                    1_GWF-(1,14868)
         83          2         33     -0.23817331                    1_GWF-(1,26350)  7.39359614E-02                    1_GWF-(1,14869)
         84          2         34     -0.19178623                    1_GWF-(1,25803)  9.58377567E-02                    1_GWF-(1,14868)
         85          2         35      0.30898861                    1_GWF-(1,26422)  6.45888235E-02                    1_GWF-(1,14869)
         86          2         36      0.26004707                    1_GWF-(1,26350)  6.71341098E-02                    1_GWF-(1,14868)
         87          2         37      0.19724317                    1_GWF-(1,26422)  3.68208668E-02                    1_GWF-(1,14869)
         88          2         38      0.19626590                    1_GWF-(1,26544)  2.76655843E-02                    1_GWF-(1,14868)
         89          2         39     -0.20587734                    1_GWF-(1,26649)  2.84980072E-02                    1_GWF-(1,14868)
         90          2         40     -0.28963174                    1_GWF-(1,26486)  5.04813863E-02                    1_GWF-(1,14869)
         91          2         41      0.22433679                    1_GWF-(1,26422)  9.42409582E-02                    1_GWF-(1,14868)
         92          2         42     -0.23607876                    1_GWF-(1,26421)     -0.11036438                    1_GWF-(1,14868)
         93          2         43     -0.35394944                    1_GWF-(1,26350)      0.13871195                    1_GWF-(1,14868)
         94          2         44     -0.21907606                    1_GWF-(1,26486)     -0.12672161                    1_GWF-(1,14868)
         95          2         45     -0.26052828                    1_GWF-(1,26420)      0.13336406                    1_GWF-(1,14868)
         96          2         46     -0.17346179                    1_GWF-(1,26421) -9.62416606E-02                    1_GWF-(1,14868)
         97          2         47     -0.24809992                    1_GWF-(1,26350)  8.31374503E-02                    1_GWF-(1,14868)
         98          2         48     -0.17544166                    1_GWF-(1,26664) -5.67756021E-02                    1_GWF-(1,14868)
         99          2         49     -0.16761234                    1_GWF-(1,26649)  5.68249311E-02                    1_GWF-(1,14868)
        100          2         50     -0.19758811                    1_GWF-(1,26623) -4.18504325E-02                    1_GWF-(1,14868)
        101          3          1     -0.23658231                    1_GWF-(1,16215)  2.57539170E-02                    1_GWF-(1,14868)
        102          3          2      0.17202966                    1_GWF-(1,26586) -5.50537954E-02                    1_GWF-(1,14868)
        103          3          3      0.24146267                    1_GWF-(1,26623)  6.27224864E-02                    1_GWF-(1,14868)
        104          3          4      0.17435656                    1_GWF-(1,26649) -4.71110921E-02                    1_GWF-(1,14868)
        105          3          5     -0.18766393                    1_GWF-(1,16130)  6.15871228E-02                    1_GWF-(1,14868)
        106          3          6      0.16372569                    1_GWF-(1,16130) -6.69106348E-02                    1_GWF-(1,14868)
        107          3          7      0.12721383                    1_GWF-(1,26198)  6.63663514E-02                    1_GWF-(1,14868)
        108          3          8     -0.15846157                    1_GWF-(1,26674) -5.14245340E-02                    1_GWF-(1,14868)
        109          3          9      0.13604229                    1_GWF-(1,16130)  5.88610748E-02                    1_GWF-(1,14868)
        110          3         10      0.12582925                    1_GWF-(1,26350) -4.28140895E-02                    1_GWF-(1,14868)
        111          3         11      0.12485694                    1_GWF-(1,26486)  3.70001749E-02                    1_GWF-(1,14868)
        112          3         12     -0.14913468                    1_GWF-(1,26422)  1.85488441E-02                    1_GWF-(1,14869)
        113          3         13     -0.10870911                    1_GWF-(1,26350)  1.30622096E-02                    1_GWF-(1,14868)
        114          3         14      0.12950353                    1_GWF-(1,26350)  4.47062999E-03                    1_GWF-(1,14867)
        115          3         15     -0.12028042                    1_GWF-(1,26350)  1.02625210E-02                    1_GWF-(1,14869)
        116          3         16     -0.12676326                    1_GWF-(1,26422)  2.25566344E-02                    1_GWF-(1,14868)
        117          3         17      0.10156672                    1_GWF-(1,26422)  2.15767054E-02                    1_GWF-(1,14869)
        118          3         18      0.11833747                    1_GWF-(1,26350)  3.48969804E-02                    1_GWF-(1,14868)
        119          3         19 -7.61631868E-02                    1_GWF-(1,26350) -3.70888089E-02                    1_GWF-(1,14868)
        120          3         20  8.61522541E-02                    1_GWF-(1,26420)  4.47770589E-02                    1_GWF-(1,14868)
        121          3         21 -8.20265030E-02                    1_GWF-(1,26420) -3.94312896E-02                    1_GWF-(1,14868)
        122          3         22 -9.18323120E-02                    1_GWF-(1,25297)  4.21951887E-02                    1_GWF-(1,14868)
        123          3         23     -0.11131123                    1_GWF-(1,25444) -3.22779293E-02                    1_GWF-(1,14868)
        124          3         24      0.12483500                    1_GWF-(1,26588)  2.82369350E-02                    1_GWF-(1,14868)
        125          3         25      0.15801807                    1_GWF-(1,26487)  8.98291327E-03                    1_GWF-(1,14869)
        126          3         26      0.19259256                    1_GWF-(1,26420)  9.05273880E-03                    1_GWF-(1,14869)
        127          3         27      0.21498804                    1_GWF-(1,26487)  2.21727084E-02                    1_GWF-(1,14868)
        128          3         28     -0.13982012                    1_GWF-(1,26487) -1.70873808E-02                    1_GWF-(1,14868)
        129          3         29     -0.16727285                    1_GWF-(1,26486)  1.65603734E-02                    1_GWF-(1,14868)
        130          3         30     -0.15342576                    1_GWF-(1,26544)  4.16256714E-03                    1_GWF-(1,14869)
        131          3         31     -0.15025849                    1_GWF-(1,26543)  4.85310124E-03                    1_GWF-(1,14869)
        132          3         32     -0.14800161                    1_GWF-(1,26588)  1.17224525E-02                    1_GWF-(1,14868)
        133          3         33      0.12303173                    1_GWF-(1,26588)  9.25236774E-03                    1_GWF-(1,14869)
        134          3         34  9.49370251E-02                    1_GWF-(1,26543)  1.04254552E-02                    1_GWF-(1,14868)
        135          3         35     -0.11617859                    1_GWF-(1,26665)  3.07787826E-03                    1_GWF-(1,14869)
        136          3         36      0.10736821                    1_GWF-(1,26665)  2.60934107E-03                    1_GWF-(1,14869)
        137          3         37      0.12487145                    1_GWF-(1,26666)  5.67048685E-03                    1_GWF-(1,14868)
        138          3         38      0.12542955                    1_GWF-(1,26622) -4.69384341E-03                    1_GWF-(1,14868)
        139          3         39  9.12607828E-02                    1_GWF-(1,26217)  4.11597257E-03                    1_GWF-(1,14868)
        140          3         40     -0.12533653                    1_GWF-(1,26665)  1.50847596E-03                    1_GWF-(1,14782)
        141          3         41      0.12505401                    1_GWF-(1,26665) -2.68813426E-03                    1_GWF-(1,14868)
        142          3         42     -0.14888771                    1_GWF-(1,26665)  4.76977297E-03                    1_GWF-(1,14868)
        143          3         43     -0.13411492                    1_GWF-(1,26666) -5.01330335E-03                    1_GWF-(1,14868)
        144          3         44      0.12578885                    1_GWF-(1,26543)  5.08545801E-03                    1_GWF-(1,14868)
        145          3         45      0.14576214                    1_GWF-(1,26649)  3.52772842E-03                    1_GWF-(1,14782)
        146          3         46      0.15100736                    1_GWF-(1,26648)  5.35493099E-03                    1_GWF-(1,14867)
        147          3         47  9.08450244E-02                    1_GWF-(1,26664) -4.67515269E-03                    1_GWF-(1,14867)
        148          3         48  9.22760175E-02                    1_GWF-(1,26217)  4.04409784E-03                    1_GWF-(1,14867)
        149          3         49     -0.10519513                    1_GWF-(1,26648) -5.05758969E-03                    1_GWF-(1,14867)
        150          3         50     -0.10384440                    1_GWF-(1,26218)  4.15381545E-03                    1_GWF-(1,14867)
        151          4          1 -6.69729649E-02                    1_GWF-(1,26217) -3.29145993E-03                    1_GWF-(1,14867)
        152          4          2 -6.83238183E-02                    1_GWF-(1,26218)  3.11776810E-03                    1_GWF-(1,14867)
        153          4          3 -7.41570945E-02                    1_GWF-(1,26217)  2.37849389E-03                    1_GWF-(1,14782)
        154          4          4 -7.39629309E-02                    1_GWF-(1,26218)  2.91982926E-03                    1_GWF-(1,14867)
        155          4          5 -5.26742085E-02                    1_GWF-(1,26422)  1.88399975E-03                    1_GWF-(1,14782)
        156          4          6 -4.76600092E-02                    1_GWF-(1,26218)  1.86526505E-03                    1_GWF-(1,14868)
        157          4          7 -3.60972865E-02                    1_GWF-(1,26485) -1.48917921E-03                    1_GWF-(1,14868)
        158          4          8 -4.82332264E-02                    1_GWF-(1,26665)  1.76463937E-03                    1_GWF-(1,14868)
        159          4          9 -5.89377035E-02                    1_GWF-(1,26666) -1.51779588E-03                    1_GWF-(1,14868)
        160          4         10 -5.80927536E-02                    1_GWF-(1,26665) -1.00028480E-03                    1_GWF-(1,14867)
        161          4         11  5.77707278E-02                    1_GWF-(1,26665)  5.35260158E-04                    1_GWF-(1,10962)
        162          4         12  3.61921733E-02                    1_GWF-(1,26622) -1.05008869E-03                    1_GWF-(1,14868)
        163          4         13  3.67906008E-02                    1_GWF-(1,26623)  1.62689964E-03                    1_GWF-(1,14868)
        164          4         14  4.95287725E-02                    1_GWF-(1,26622)  1.16097401E-03                    1_GWF-(1,14867)
        165          4         15  4.25436957E-02                    1_GWF-(1,26623)  7.21507042E-04                    1_GWF-(1,14782)
        166          4         16  3.48859039E-02                    1_GWF-(1,26665)  9.92969561E-04                    1_GWF-(1,14868)
        167          4         17  2.53776411E-02                    1_GWF-(1,26588) -1.25421097E-03                    1_GWF-(1,14868)
        168          4         18  2.07041150E-02                    1_GWF-(1,26543)  1.44991763E-03                    1_GWF-(1,14868)
        169          4         19 -2.34391925E-02                    1_GWF-(1,26543) -1.41483598E-03                    1_GWF-(1,14868)
        170          4         20 -3.20121399E-02                    1_GWF-(1,26588)  5.76558841E-04                    1_GWF-(1,14868)
        171          4         21 -3.10552463E-02                    1_GWF-(1,26543)  9.58217140E-04                    1_GWF-(1,14868)
        172          4         22 -2.28148522E-02                    1_GWF-(1,26544) -1.60482568E-03                    1_GWF-(1,14868)
        173          4         23 -2.93425107E-02                    1_GWF-(1,26486)  2.42241140E-03                    1_GWF-(1,14868)
        174          4         24 -3.35727377E-02                    1_GWF-(1,26487)  1.71349172E-03                    1_GWF-(1,14869)
        175          4         25 -2.85247929E-02                    1_GWF-(1,26420)  7.63887044E-04                    1_GWF-(1,14868)
        176          4         26 -2.41715464E-02                    1_GWF-(1,26487)  1.39906533E-03                    1_GWF-(1,14868)
        177          4         27 -1.76880822E-02                    1_GWF-(1,26420) -2.47014037E-03                    1_GWF-(1,14868)
        178          4         28 -1.22473386E-02                    1_GWF-(1,26421)  3.86698637E-03                    1_GWF-(1,14868)
        179          4         29  1.02985023E-02                    1_GWF-(1,26543) -4.42936978E-03                    1_GWF-(1,14868)
        180          4         30  1.20672183E-02                    1_GWF-(1,26420)  5.00003971E-03                    1_GWF-(1,14868)
        181          4         31  1.79023290E-02                    1_GWF-(1,26422) -4.40618526E-03                    1_GWF-(1,14868)
        182          4         32  1.85209869E-02                    1_GWF-(1,26350)  5.16251719E-03                    1_GWF-(1,14868)
        183          4         33  1.86428824E-02                    1_GWF-(1,26421) -3.63071144E-03                    1_GWF-(1,14868)
        184          4         34  1.85116624E-02                    1_GWF-(1,26350)  3.87290147E-03                    1_GWF-(1,14868)
        185          4         35  1.91085946E-02                    1_GWF-(1,26422) -1.97573633E-03                    1_GWF-(1,14868)
        186          4         36  1.09389883E-02                    1_GWF-(1,26350)  1.70091923E-03                    1_GWF-(1,14867)
        187          4         37 -1.64920077E-02                    1_GWF-(1,26350)  1.45766076E-03                    1_GWF-(1,14782)
        188          4         38 -1.45739204E-02                    1_GWF-(1,26422)  1.89403830E-03                    1_GWF-(1,14867)
        189          4         39 -1.36204263E-02                    1_GWF-(1,26544)  2.08256142E-03                    1_GWF-(1,14868)
        190          4         40 -1.42998008E-02                    1_GWF-(1,26486)  2.08526195E-03                    1_GWF-(1,14869)
        191          4         41 -1.11911017E-02                    1_GWF-(1,26350)  2.88457152E-03                    1_GWF-(1,14868)
        192          4         42 -8.70665648E-03                    1_GWF-(1,26422) -2.50961649E-03                    1_GWF-(1,14868)
        193          4         43 -8.08980310E-03                    1_GWF-(1,26544)  3.09347504E-03                    1_GWF-(1,14868)
        194          4         44 -6.33074510E-03                    1_GWF-(1,26486) -2.60851138E-03                    1_GWF-(1,14868)
        195          4         45 -5.49715849E-03                    1_GWF-(1,16130)  2.95824111E-03                    1_GWF-(1,14868)
        196          4         46  5.99695948E-03                    1_GWF-(1,16130) -2.75163586E-03                    1_GWF-(1,14868)
        197          4         47  7.46524138E-03                    1_GWF-(1,26672)  3.22996977E-03                    1_GWF-(1,14868)
        198          4         48 -5.83280817E-03                    1_GWF-(1,26623) -3.06012510E-03                    1_GWF-(1,14868)
        199          4         49  7.17291953E-03                    1_GWF-(1,16130)  2.26895321E-03                    1_GWF-(1,14868)
        200          4         50  7.19377097E-03                    1_GWF-(1,26326) -2.31350664E-03                    1_GWF-(1,14868)
        201          5          1 -1.50187061E-02                    1_GWF-(1,11933)  1.58010082E-03                    1_GWF-(1,14868)
        202          5          2 -7.29701375E-03                    1_GWF-(1,11934) -2.20909299E-03                    1_GWF-(1,14868)
        203          5          3 -4.90677742E-03                    1_GWF-(1,26673)  2.31247958E-03                    1_GWF-(1,14868)
        204          5          4 -5.40201289E-03                    1_GWF-(1,26672) -2.26406094E-03                    1_GWF-(1,14868)
        205          5          5  4.60080786E-03                    1_GWF-(1,26422)  2.26025683E-03                    1_GWF-(1,14868)
        206          5          6  3.21173329E-03                    1_GWF-(1,11934) -2.08338266E-03                    1_GWF-(1,14868)
        207          5          7 -3.79829712E-03                    1_GWF-(1,26350)  2.39635454E-03                    1_GWF-(1,14868)
        208          5          8 -4.98809175E-03                    1_GWF-(1,26422) -2.12755895E-03                    1_GWF-(1,14868)
        209          5          9  3.36895278E-03                    1_GWF-(1,26588)  2.25308312E-03                    1_GWF-(1,14868)
        210          5         10  4.52022436E-03                    1_GWF-(1,26350) -1.59188335E-03                    1_GWF-(1,14868)
        211          5         11  6.22924432E-03                    1_GWF-(1,26486)  1.61898950E-03                    1_GWF-(1,14868)
        212          5         12  6.06504622E-03                    1_GWF-(1,26544)  9.35578786E-04                    1_GWF-(1,14869)
        213          5         13  6.93728091E-03                    1_GWF-(1,26422)  5.91003688E-04                    1_GWF-(1,14782)
        214          5         14 -7.86025452E-03                    1_GWF-(1,26486)  5.00555866E-04                    1_GWF-(1,14867)
        215          5         15 -7.13846835E-03                    1_GWF-(1,26544)  7.74192212E-04                    1_GWF-(1,14869)
        216          5         16 -7.85137558E-03                    1_GWF-(1,26486)  1.13264784E-03                    1_GWF-(1,14868)
        217          5         17 -8.32665360E-03                    1_GWF-(1,26588)  6.13157038E-04                    1_GWF-(1,14867)
        218          5         18 -7.24592225E-03                    1_GWF-(1,26589)  5.03148197E-04                    1_GWF-(1,14869)
        219          5         19 -8.45668998E-03                    1_GWF-(1,26422)  1.34900335E-03                    1_GWF-(1,14868)
        220          5         20 -9.03803269E-03                    1_GWF-(1,26350) -1.62634002E-03                    1_GWF-(1,14868)
        221          5         21 -6.44128199E-03                    1_GWF-(1,26422)  2.24529057E-03                    1_GWF-(1,14868)
        222          5         22 -4.20322268E-03                    1_GWF-(1,25442) -2.24565391E-03                    1_GWF-(1,14868)
        223          5         23 -4.36769627E-03                    1_GWF-(1,25443)  2.23697285E-03                    1_GWF-(1,14868)
        224          5         24  5.82015159E-03                    1_GWF-(1,26486) -1.47197111E-03                    1_GWF-(1,14868)
        225          5         25  5.99061075E-03                    1_GWF-(1,26487)  7.31987079E-04                    1_GWF-(1,14868)
        226          5         26  5.95650071E-03                    1_GWF-(1,26486)  6.51756032E-04                    1_GWF-(1,14868)
        227          5         27 -6.47963148E-03                    1_GWF-(1,26649) -1.15840825E-03                    1_GWF-(1,14868)
        228          5         28  5.49373855E-03                    1_GWF-(1,26420)  1.58610617E-03                    1_GWF-(1,14868)
        229          5         29 -3.49916202E-03                    1_GWF-(1,26649) -1.20256953E-03                    1_GWF-(1,14868)
        230          5         30 -3.74770772E-03                    1_GWF-(1,22718)  1.10846710E-03                    1_GWF-(1,14868)
        231          5         31 -3.23718178E-03                    1_GWF-(1,24664) -6.78185352E-04                    1_GWF-(1,14868)
        232          5         32 -3.62476600E-03                    1_GWF-(1,26623)  5.45161045E-04                    1_GWF-(1,14868)
        233          5         33  3.94437081E-03                    1_GWF-(1,26647) -3.27627996E-04                    1_GWF-(1,14867)
        234          5         34  5.18028378E-03                    1_GWF-(1,26622)  5.34924059E-04                    1_GWF-(1,14867)
        235          5         35 -7.44711323E-03                    1_GWF-(1,26665)  4.09708316E-04                    1_GWF-(1,14782)
        236          5         36 -5.81216247E-03                    1_GWF-(1,26666)  3.35260771E-04                    1_GWF-(1,14869)
        237          5         37 -4.18990652E-03                    1_GWF-(1,26622)  4.42309185E-04                    1_GWF-(1,14868)
        238          5         38 -3.56985895E-03                    1_GWF-(1,26589) -3.48915739E-04                    1_GWF-(1,14867)
        239          5         39 -4.70324667E-03                    1_GWF-(1,26588)  6.08410598E-04                    1_GWF-(1,14867)
        240          5         40 -4.09071297E-03                    1_GWF-(1,26589) -6.93261191E-04                    1_GWF-(1,14867)
        241          5         41  4.89929636E-03                    1_GWF-(1,26665)  6.23748211E-04                    1_GWF-(1,14867)
        242          5         42  7.30438110E-03                    1_GWF-(1,26588)  1.68513122E-04                    1_GWF-(1,14868)
        243          5         43  6.34044221E-03                    1_GWF-(1,26589) -3.42989567E-04                    1_GWF-(1,14867)
        244          5         44  5.36377265E-03                    1_GWF-(1,26588)  6.89623789E-04                    1_GWF-(1,14867)
        245          5         45  3.47173670E-03                    1_GWF-(1,26665) -8.35830256E-04                    1_GWF-(1,14867)
        246          5         46  2.71387495E-03                    1_GWF-(1,26666)  9.78879486E-04                    1_GWF-(1,14867)
        247          5         47  2.85419343E-03                    1_GWF-(1,26218) -8.52307355E-04                    1_GWF-(1,14867)
        248          5         48  3.44601134E-03                    1_GWF-(1,26217)  8.37382515E-04                    1_GWF-(1,14867)
        249          5         49  2.83386201E-03                    1_GWF-(1,26218) -7.53942442E-04                    1_GWF-(1,14867)
        250          5         50  2.32355134E-03                    1_GWF-(1,26217)  6.95894110E-04                    1_GWF-(1,14867)
        251          6          1 -7.72561602E-03                    1_GWF-(1,11932) -3.24911880E-04                    1_GWF-(1,14867)
        252          6          2 -3.77142253E-03                    1_GWF-(1,11931)  5.35160692E-04                    1_GWF-(1,14867)
        253          6          3 -2.94887497E-03                    1_GWF-(1,26217) -5.43471534E-04                    1_GWF-(1,14867)
        254          6          4 -3.32109149E-03                    1_GWF-(1,26218)  6.24891552E-04                    1_GWF-(1,14867)
        255          6          5 -2.66918916E-03                    1_GWF-(1,26422) -5.06990655E-04                    1_GWF-(1,14867)
        256          6          6 -2.39496965E-03                    1_GWF-(1,26218)  4.80807909E-04                    1_GWF-(1,14867)
        257          6          7 -1.89194060E-03                    1_GWF-(1,26486) -2.68687709E-04                    1_GWF-(1,14867)
        258          6          8 -2.37039810E-03                    1_GWF-(1,26665)  1.16874212E-04                    1_GWF-(1,14868)
        259          6          9 -2.86449657E-03                    1_GWF-(1,26588)  1.72792621E-04                    1_GWF-(1,14867)
        260          6         10 -2.38529078E-03                    1_GWF-(1,26665) -2.38665412E-04                    1_GWF-(1,14867)
        261          6         11  1.94756672E-03                    1_GWF-(1,26543)  2.16482990E-04                    1_GWF-(1,14867)
        262          6         12  2.15705195E-03                    1_GWF-(1,26588) -9.87089899E-05                    1_GWF-(1,14867)
        263          6         13  1.67058676E-03                    1_GWF-(1,26589)  1.19132724E-04                    1_GWF-(1,14868)
        264          6         14  1.57340789E-03                    1_GWF-(1,26588)  1.02287559E-04                    1_GWF-(1,14869)
        265          6         15  1.61119604E-03                    1_GWF-(1,26649)  1.34923159E-04                    1_GWF-(1,14782)
        266          6         16  2.00345839E-03                    1_GWF-(1,26665)  1.57006825E-04                    1_GWF-(1,14867)
        267          6         17  1.55327901E-03                    1_GWF-(1,26543)  6.49547467E-05                    1_GWF-(1,14782)
        268          6         18  1.06442286E-03                    1_GWF-(1,26588)  6.85927658E-05                    1_GWF-(1,14868)
        269          6         19 -9.44449925E-04                    1_GWF-(1,26665)  8.69940442E-05                    1_GWF-(1,14869)
        270          6         20  8.94700575E-04                    1_GWF-(1,24664)  1.52765217E-04                    1_GWF-(1,14868)
        271          6         21  8.76423184E-04                    1_GWF-(1,24688)  1.92870579E-04                    1_GWF-(1,14867)
        272          6         22 -1.02614711E-03                    1_GWF-(1,26486)  1.90494589E-04                    1_GWF-(1,14868)
        273          6         23 -1.26416865E-03                    1_GWF-(1,26649)  1.12840196E-04                    1_GWF-(1,14867)
        274          6         24 -1.42862035E-03                    1_GWF-(1,26622)  5.52695082E-05                    1_GWF-(1,14867)
        275          6         25 -1.21881077E-03                    1_GWF-(1,26623)  1.37381911E-04                    1_GWF-(1,14868)
        276          6         26 -8.73949359E-04                    1_GWF-(1,26217)  2.14184481E-04                    1_GWF-(1,14867)
        277          6         27 -8.87129577E-04                    1_GWF-(1,26421)  2.52468459E-04                    1_GWF-(1,14868)
        278          6         28 -9.02995145E-04                    1_GWF-(1,26420) -2.60921370E-04                    1_GWF-(1,14868)
        279          6         29  7.18387327E-04                    1_GWF-(1,26420)  2.74147141E-04                    1_GWF-(1,14868)
        280          6         30  9.44013591E-04                    1_GWF-(1,26421) -1.89702144E-04                    1_GWF-(1,14868)
        281          6         31  1.19783177E-03                    1_GWF-(1,26420)  1.13722881E-04                    1_GWF-(1,14868)
        282          6         32  1.43695332E-03                    1_GWF-(1,26487)  1.09514987E-04                    1_GWF-(1,14782)
        283          6         33  1.29804991E-03                    1_GWF-(1,26486)  1.69253093E-04                    1_GWF-(1,14869)
        284          6         34  9.79841651E-04                    1_GWF-(1,26487)  2.36065537E-04                    1_GWF-(1,14868)
        285          6         35  9.17304123E-04                    1_GWF-(1,26486) -1.60234615E-04                    1_GWF-(1,14868)
        286          6         36  6.79707032E-04                    1_GWF-(1,26544)  1.67409540E-04                    1_GWF-(1,14868)
        287          6         37 -9.29269706E-04                    1_GWF-(1,26350)  9.99524405E-05                    1_GWF-(1,14782)
        288          6         38 -9.44835947E-04                    1_GWF-(1,26422)  1.49887132E-04                    1_GWF-(1,14867)
        289          6         39 -7.21733689E-04                    1_GWF-(1,26350)  1.16819754E-04                    1_GWF-(1,14782)
        290          6         40 -6.42760106E-04                    1_GWF-(1,26422)  1.19776859E-04                    1_GWF-(1,14867)
        291          6         41 -6.03837584E-04                    1_GWF-(1,26350)  1.34684085E-04                    1_GWF-(1,14868)
        292          6         42 -4.83650533E-04                    1_GWF-(1,26422) -1.39570347E-04                    1_GWF-(1,14868)
        293          6         43 -4.05049517E-04                    1_GWF-(1,26544)  2.04983614E-04                    1_GWF-(1,14868)
        294          6         44  4.55777998E-04                    1_GWF-(1,26350) -1.82426800E-04                    1_GWF-(1,14868)
        295          6         45  2.63460640E-04                    1_GWF-(1,26422)  2.18806499E-04                    1_GWF-(1,14868)
        296          6         46  2.45399295E-04                    1_GWF-(1,26544) -2.11817952E-04                    1_GWF-(1,14868)
        297          6         47 -2.97170348E-04                    1_GWF-(1,25786)  2.04348861E-04                    1_GWF-(1,14868)
        298          6         48 -3.08541789E-04                    1_GWF-(1,25765) -1.76760501E-04                    1_GWF-(1,14868)
        299          6         49 -2.74739764E-04                    1_GWF-(1,25727)  1.43486675E-04                    1_GWF-(1,14868)
        300          6         50  2.65343276E-04                    1_GWF-(1,26586) -1.33042021E-04                    1_GWF-(1,14868)
        301          7          1 -7.36076989E-04                    1_GWF-(1,11249)  1.07946965E-04                    1_GWF-(1,14868)
        302          7          2 -3.99729711E-04                    1_GWF-(1,11930) -1.45806471E-04                    1_GWF-(1,14868)
        303          7          3  2.43278506E-04                    1_GWF-(1,11249)  1.63732690E-04                    1_GWF-(1,14868)
        304          7          4  2.65114538E-04                    1_GWF-(1,26217) -1.62264101E-04                    1_GWF-(1,14868)
        305          7          5  2.33242759E-04                    1_GWF-(1,26422)  1.75709739E-04                    1_GWF-(1,14868)
        306          7          6  2.20757055E-04                    1_GWF-(1,11930) -1.56951773E-04                    1_GWF-(1,14868)
        307          7          7 -3.00526625E-04                    1_GWF-(1,26350)  1.74605841E-04                    1_GWF-(1,14868)
        308          7          8 -3.46055989E-04                    1_GWF-(1,26422) -1.35621231E-04                    1_GWF-(1,14868)
        309          7          9  2.83431038E-04                    1_GWF-(1,26588)  1.26522450E-04                    1_GWF-(1,14868)
        310          7         10  2.69716300E-04                    1_GWF-(1,26350)  7.38542563E-05                    1_GWF-(1,14869)
        311          7         11  3.11828558E-04                    1_GWF-(1,26588)  6.75452161E-05                    1_GWF-(1,14782)
        312          7         12 -4.11448845E-04                    1_GWF-(1,26588)  7.48437437E-05                    1_GWF-(1,14867)
        313          7         13  5.42562396E-04                    1_GWF-(1,26588)  4.83733980E-05                    1_GWF-(1,14869)
        314          7         14 -5.16435527E-04                    1_GWF-(1,26588)  7.21679953E-05                    1_GWF-(1,14868)
        315          7         15 -4.61579125E-04                    1_GWF-(1,26543)  7.38952165E-05                    1_GWF-(1,14867)
        316          7         16 -4.12536600E-04                    1_GWF-(1,26544)  6.81519960E-05                    1_GWF-(1,14782)
        317          7         17 -4.48240232E-04                    1_GWF-(1,26486)  7.42378630E-05                    1_GWF-(1,14868)
        318          7         18 -4.37939909E-04                    1_GWF-(1,26487)  7.14685684E-05                    1_GWF-(1,14869)
        319          7         19 -4.27047428E-04                    1_GWF-(1,26486)  8.66385583E-05                    1_GWF-(1,14868)
        320          7         20  4.67461332E-04                    1_GWF-(1,26588)  6.05562908E-05                    1_GWF-(1,14867)
        321          7         21 -4.61550666E-04                    1_GWF-(1,26420) -5.30295025E-05                    1_GWF-(1,14867)
        322          7         22 -4.55630359E-04                    1_GWF-(1,26422)  7.48166697E-05                    1_GWF-(1,14868)
        323          7         23  4.09311246E-04                    1_GWF-(1,26422) -8.78314780E-05                    1_GWF-(1,14868)
        324          7         24  3.50914792E-04                    1_GWF-(1,26420)  1.12890421E-04                    1_GWF-(1,14868)
        325          7         25  3.47105846E-04                    1_GWF-(1,26422) -8.42997715E-05                    1_GWF-(1,14868)
        326          7         26  3.07991493E-04                    1_GWF-(1,26544)  8.83774193E-05                    1_GWF-(1,14868)
        327          7         27  3.89744353E-04                    1_GWF-(1,26486)  4.71605834E-05                    1_GWF-(1,14867)
        328          7         28  4.53012972E-04                    1_GWF-(1,26487)  2.16705920E-05                    1_GWF-(1,14869)
        329          7         29  3.72007913E-04                    1_GWF-(1,26420)  7.56733580E-05                    1_GWF-(1,14868)
        330          7         30 -3.69388350E-04                    1_GWF-(1,26420) -8.20951940E-05                    1_GWF-(1,14868)
        331          7         31 -2.38272971E-04                    1_GWF-(1,26421)  8.28112158E-05                    1_GWF-(1,14868)
        332          7         32 -2.16433704E-04                    1_GWF-(1,26217) -5.93824319E-05                    1_GWF-(1,14868)
        333          7         33 -2.03500553E-04                    1_GWF-(1,26421)  5.43949295E-05                    1_GWF-(1,14868)
        334          7         34 -1.62616288E-04                    1_GWF-(1,26348)  4.28913317E-05                    1_GWF-(1,14867)
        335          7         35 -1.90657870E-04                    1_GWF-(1,26184)  4.05209458E-05                    1_GWF-(1,14868)
        336          7         36 -2.35234084E-04                    1_GWF-(1,26649)  2.42972322E-05                    1_GWF-(1,14869)
        337          7         37  1.52775591E-04                    1_GWF-(1,26217)  2.54401136E-05                    1_GWF-(1,14868)
        338          7         38 -2.05991943E-04                    1_GWF-(1,26586)  1.54460756E-05                    1_GWF-(1,14782)
        339          7         39 -2.03416605E-04                    1_GWF-(1,26588)  3.21631929E-05                    1_GWF-(1,14867)
        340          7         40 -2.23317050E-04                    1_GWF-(1,26663) -3.86734358E-05                    1_GWF-(1,14867)
        341          7         41  3.05787137E-04                    1_GWF-(1,26666)  4.23081825E-05                    1_GWF-(1,14867)
        342          7         42  3.72825099E-04                    1_GWF-(1,26665)  2.07994401E-05                    1_GWF-(1,14782)
        343          7         43 -3.37657894E-04                    1_GWF-(1,26665)  1.03853380E-05                    1_GWF-(1,14869)
        344          7         44  2.47346475E-04                    1_GWF-(1,26622)  3.27518297E-05                    1_GWF-(1,14867)
        345          7         45  2.04486666E-04                    1_GWF-(1,26623) -4.06878248E-05                    1_GWF-(1,14867)
        346          7         46  1.83262772E-04                    1_GWF-(1,26665)  5.14037573E-05                    1_GWF-(1,14867)
        347          7         47  2.26563195E-04                    1_GWF-(1,26218) -4.34902728E-05                    1_GWF-(1,14867)
        348          7         48  2.34873481E-04                    1_GWF-(1,26217)  4.49729888E-05                    1_GWF-(1,14867)
        349          7         49  1.70178781E-04                    1_GWF-(1,26218) -3.23524590E-05                    1_GWF-(1,14867)
        350          7         50  1.60648593E-04                    1_GWF-(1,11932)  4.63457596E-05                    1_GWF-(1,14867)
        351          8          1 -1.55804907E-04                    1_GWF-(1,11932) -3.43228264E-05                    1_GWF-(1,14867)
        352          8          2 -1.36114622E-04                    1_GWF-(1,26218)  3.80123161E-05                    1_GWF-(1,14867)
        353          8          3 -1.96425380E-04                    1_GWF-(1,26217) -3.29809589E-05                    1_GWF-(1,14867)
        354          8          4 -1.95885051E-04                    1_GWF-(1,26218)  3.83743233E-05                    1_GWF-(1,14867)
        355          8          5 -1.55610951E-04                    1_GWF-(1,26422) -2.95662050E-05                    1_GWF-(1,14867)
        356          8          6 -1.12854763E-04                    1_GWF-(1,26218)  2.40574745E-05                    1_GWF-(1,14867)
        357          8          7 -1.51967262E-04                    1_GWF-(1,26665)  8.37796286E-06                    1_GWF-(1,14782)
        358          8          8 -1.47786688E-04                    1_GWF-(1,26666)  7.04832079E-06                    1_GWF-(1,14782)
        359          8          9 -1.88604154E-04                    1_GWF-(1,26622)  1.84462686E-05                    1_GWF-(1,14867)
        360          8         10 -1.42543545E-04                    1_GWF-(1,26623) -1.80099868E-05                    1_GWF-(1,14867)
        361          8         11  1.01127915E-04                    1_GWF-(1,26663)  1.35469213E-05                    1_GWF-(1,14867)
        362          8         12  1.00501906E-04                    1_GWF-(1,26622)  6.13933624E-06                    1_GWF-(1,14782)
        363          8         13  9.35042375E-05                    1_GWF-(1,26588)  7.01845892E-06                    1_GWF-(1,14868)
        364          8         14  1.14965026E-04                    1_GWF-(1,26622)  6.62627768E-06                    1_GWF-(1,14867)
        365          8         15  1.32246645E-04                    1_GWF-(1,26649)  7.32662804E-06                    1_GWF-(1,14782)
        366          8         16  8.98063557E-05                    1_GWF-(1,26486)  5.42017898E-06                    1_GWF-(1,14868)
        367          8         17  6.66839989E-05                    1_GWF-(1,26665)  5.39174356E-06                    1_GWF-(1,14869)
        368          8         18  5.92590216E-05                    1_GWF-(1,24701)  8.27699044E-06                    1_GWF-(1,14868)
        369          8         19  5.80172645E-05                    1_GWF-(1,24683) -9.36893972E-06                    1_GWF-(1,14868)
        370          8         20 -6.30335290E-05                    1_GWF-(1,26674)  1.28416335E-05                    1_GWF-(1,14868)
        371          8         21  5.56854788E-05                    1_GWF-(1,24645)  1.52642754E-05                    1_GWF-(1,14867)
        372          8         22 -6.30957246E-05                    1_GWF-(1,26487)  1.50931168E-05                    1_GWF-(1,14868)
        373          8         23 -9.79364295E-05                    1_GWF-(1,26420) -9.69738229E-06                    1_GWF-(1,14868)
        374          8         24 -9.90632245E-05                    1_GWF-(1,26487)  3.21761495E-06                    1_GWF-(1,14868)
        375          8         25 -7.86906491E-05                    1_GWF-(1,26486)  8.44971915E-06                    1_GWF-(1,14868)
        376          8         26 -5.91804984E-05                    1_GWF-(1,26487)  1.18650658E-05                    1_GWF-(1,14867)
        377          8         27 -5.60505591E-05                    1_GWF-(1,26486)  1.78324546E-05                    1_GWF-(1,14868)
        378          8         28 -4.32578595E-05                    1_GWF-(1,26544) -1.74451517E-05                    1_GWF-(1,14868)
        379          8         29  4.09781076E-05                    1_GWF-(1,26420)  1.63331323E-05                    1_GWF-(1,14868)
        380          8         30  7.05537306E-05                    1_GWF-(1,26422) -1.08348632E-05                    1_GWF-(1,14868)
        381          8         31  7.87392821E-05                    1_GWF-(1,26350)  6.66388163E-06                    1_GWF-(1,14867)
        382          8         32  6.75625402E-05                    1_GWF-(1,26422)  7.95288153E-06                    1_GWF-(1,14868)
        383          8         33  7.35328191E-05                    1_GWF-(1,26588)  1.05534133E-05                    1_GWF-(1,14869)
        384          8         34  5.62087710E-05                    1_GWF-(1,26589)  1.37810216E-05                    1_GWF-(1,14868)
        385          8         35  5.17235777E-05                    1_GWF-(1,26588) -9.59726342E-06                    1_GWF-(1,14868)
        386          8         36 -4.69931652E-05                    1_GWF-(1,26422)  9.43344634E-06                    1_GWF-(1,14868)
        387          8         37 -6.83085470E-05                    1_GWF-(1,26350)  6.44102288E-06                    1_GWF-(1,14782)
        388          8         38 -6.03320591E-05                    1_GWF-(1,26422)  9.08063097E-06                    1_GWF-(1,14867)
        389          8         39 -3.91928990E-05                    1_GWF-(1,26350)  6.86317572E-06                    1_GWF-(1,14782)
        390          8         40 -3.38790459E-05                    1_GWF-(1,26422)  6.93360829E-06                    1_GWF-(1,14867)
        391          8         41 -3.16509210E-05                    1_GWF-(1,26350)  9.85899154E-06                    1_GWF-(1,14868)
        392          8         42 -2.13562231E-05                    1_GWF-(1,26422) -1.03520281E-05                    1_GWF-(1,14868)
        393          8         43  3.11117593E-05                    1_GWF-(1,26422)  1.40322446E-05                    1_GWF-(1,14868)
        394          8         44  3.14251707E-05                    1_GWF-(1,26350) -1.22485794E-05                    1_GWF-(1,14868)
        395          8         45  1.89283724E-05                    1_GWF-(1,26486)  1.33329539E-05                    1_GWF-(1,14868)
        396          8         46  1.88097338E-05                    1_GWF-(1,26544) -1.22245718E-05                    1_GWF-(1,14868)
        397          8         47  2.01315439E-05                    1_GWF-(1,26486)  1.19067189E-05                    1_GWF-(1,14868)
        398          8         48 -2.25232389E-05                    1_GWF-(1,26486) -9.05812555E-06                    1_GWF-(1,14868)
        399          8         49 -2.94825105E-05                    1_GWF-(1,26487)  3.61494205E-06                    1_GWF-(1,14868)
        400          8         50  3.32832233E-05                    1_GWF-(1,26623)  2.77495212E-06                    1_GWF-(1,14868)
        401          9          1  3.52400772E-05                    1_GWF-(1,26486) -1.96830060E-06                    1_GWF-(1,14868)
        402          9          2  3.55840091E-05                    1_GWF-(1,26487)  1.13746245E-06                    1_GWF-(1,10961)
        403          9          3  2.21537783E-05                    1_GWF-(1,26486)  2.33243755E-06                    1_GWF-(1,14868)
        404          9          4 -1.61105413E-05                    1_GWF-(1,26622) -4.54494709E-06                    1_GWF-(1,14868)
        405          9          5 -1.50578174E-05                    1_GWF-(1,26544)  7.61993775E-06                    1_GWF-(1,14868)
        406          9          6 -1.46437584E-05                    1_GWF-(1,26486) -9.49705554E-06                    1_GWF-(1,14868)
        407          9          7 -2.23197959E-05                    1_GWF-(1,26350)  1.33614588E-05                    1_GWF-(1,14868)
        408          9          8 -2.69981951E-05                    1_GWF-(1,26421) -1.19521681E-05                    1_GWF-(1,14868)
        409          9          9  2.34624353E-05                    1_GWF-(1,26622)  9.88986170E-06                    1_GWF-(1,14868)
        410          9         10  2.80276306E-05                    1_GWF-(1,26649)  2.90182141E-06                    1_GWF-(1,14869)
        411          9         11  2.90449654E-05                    1_GWF-(1,26487)  3.95371466E-06                    1_GWF-(1,14869)
        412          9         12  3.84632250E-05                    1_GWF-(1,26486)  1.03296481E-05                    1_GWF-(1,14868)
        413          9         13  2.58752156E-05                    1_GWF-(1,26544) -8.57220822E-06                    1_GWF-(1,14868)
        414          9         14  2.56966950E-05                    1_GWF-(1,26422)  7.62182124E-06                    1_GWF-(1,14868)
        415          9         15 -2.19835063E-05                    1_GWF-(1,26486)  3.17172757E-06                    1_GWF-(1,14869)
        416          9         16 -1.93838504E-05                    1_GWF-(1,26543)  2.00915898E-06                    1_GWF-(1,14782)
        417          9         17 -3.19224110E-05                    1_GWF-(1,26588)  4.78330873E-06                    1_GWF-(1,14868)
        418          9         18 -2.94599375E-05                    1_GWF-(1,26589)  5.42724535E-06                    1_GWF-(1,14869)
        419          9         19 -3.35797607E-05                    1_GWF-(1,26588)  7.19639120E-06                    1_GWF-(1,14868)
        420          9         20  3.55975449E-05                    1_GWF-(1,26588) -3.49407427E-06                    1_GWF-(1,14868)
        421          9         21 -3.22658263E-05                    1_GWF-(1,26420)  1.67650328E-06                    1_GWF-(1,14782)
        422          9         22 -2.89862294E-05                    1_GWF-(1,26422)  3.70971360E-06                    1_GWF-(1,14868)
        423          9         23  2.68178690E-05                    1_GWF-(1,26422) -5.09847976E-06                    1_GWF-(1,14868)
        424          9         24  3.05608129E-05                    1_GWF-(1,26420)  6.21645729E-06                    1_GWF-(1,14868)
        425          9         25  2.65197411E-05                    1_GWF-(1,26665) -3.18169830E-06                    1_GWF-(1,14868)
        426          9         26 -3.16882041E-05                    1_GWF-(1,26665)  1.62989984E-06                    1_GWF-(1,14782)
        427          9         27 -2.67597934E-05                    1_GWF-(1,26666)  2.41620953E-06                    1_GWF-(1,14868)
        428          9         28 -2.58196977E-05                    1_GWF-(1,26665) -4.42422283E-06                    1_GWF-(1,14868)
        429          9         29  1.96136694E-05                    1_GWF-(1,26544)  6.57317151E-06                    1_GWF-(1,14868)
        430          9         30 -1.95690467E-05                    1_GWF-(1,26350) -5.92789536E-06                    1_GWF-(1,14868)
        431          9         31 -2.25791452E-05                    1_GWF-(1,26486)  5.07134159E-06                    1_GWF-(1,14868)
        432          9         32  1.87929812E-05                    1_GWF-(1,26543)  1.55769386E-06                    1_GWF-(1,14869)
        433          9         33  2.07313138E-05                    1_GWF-(1,26649) -1.79244651E-06                    1_GWF-(1,14868)
        434          9         34  2.28703236E-05                    1_GWF-(1,26622)  4.59523157E-06                    1_GWF-(1,14868)
        435          9         35  1.78453436E-05                    1_GWF-(1,26623) -4.49730795E-06                    1_GWF-(1,14868)
        436          9         36 -1.85315518E-05                    1_GWF-(1,26623)  4.44106159E-06                    1_GWF-(1,14868)
        437          9         37 -1.35494474E-05                    1_GWF-(1,26622)  3.07477474E-06                    1_GWF-(1,14869)
        438          9         38 -1.37877385E-05                    1_GWF-(1,26623)  3.34055082E-06                    1_GWF-(1,14868)
        439          9         39 -1.82862458E-05                    1_GWF-(1,26586)  2.98130068E-06                    1_GWF-(1,14867)
        440          9         40 -1.27490968E-05                    1_GWF-(1,26623) -2.82578613E-06                    1_GWF-(1,14867)
        441          9         41 -1.22264609E-05                    1_GWF-(1,26217)  3.19581564E-06                    1_GWF-(1,14867)
        442          9         42 -1.85912614E-05                    1_GWF-(1,26218)  2.73948997E-06                    1_GWF-(1,14782)
        443          9         43 -1.79456130E-05                    1_GWF-(1,26217)  2.58056883E-06                    1_GWF-(1,14867)
        444          9         44 -1.43119679E-05                    1_GWF-(1,26218)  1.51830175E-06                    1_GWF-(1,14782)
        445          9         45  1.33631819E-05                    1_GWF-(1,26486)  1.25496290E-06                    1_GWF-(1,14867)
        446          9         46  1.45741389E-05                    1_GWF-(1,26422)  7.68113293E-07                    1_GWF-(1,14868)
        447          9         47  1.33723277E-05                    1_GWF-(1,26350)  4.70692465E-07                    1_GWF-(1,14782)
        448          9         48 -1.52124365E-05                    1_GWF-(1,26649)  8.92730868E-07                    1_GWF-(1,14867)
        449          9         49  1.24819998E-05                    1_GWF-(1,26486)  5.73165228E-07                    1_GWF-(1,14782)
        450          9         50 -9.49548215E-06                    1_GWF-(1,26623)  4.39274508E-07                    1_GWF-(1,14869)
        451         10          1 -9.64373315E-06                    1_GWF-(1,26487)  6.98523447E-07                    1_GWF-(1,14868)
        452         10          2 -1.07579932E-05                    1_GWF-(1,26420)  3.53424422E-07                    1_GWF-(1,14869)
        453         10          3 -1.26154538E-05                    1_GWF-(1,26487)  3.07467623E-07                    1_GWF-(1,10958)
        454         10          4 -1.16146523E-05                    1_GWF-(1,26486)  5.86437715E-07                    1_GWF-(1,14868)
        455         10          5 -1.23810847E-05                    1_GWF-(1,26422)  4.89655894E-07                    1_GWF-(1,14869)
        456         10          6 -1.01815135E-05                    1_GWF-(1,26486)  7.21853292E-07                    1_GWF-(1,14868)
        457         10          7 -8.88376634E-06                    1_GWF-(1,26544)  7.03642986E-07                    1_GWF-(1,14869)
        458         10          8  1.11755566E-05                    1_GWF-(1,26217)  1.06349322E-06                    1_GWF-(1,14868)
        459         10          9  1.12616341E-05                    1_GWF-(1,26218) -7.32464665E-07                    1_GWF-(1,14868)
        460         10         10 -9.89883007E-06                    1_GWF-(1,26622)  5.21903721E-07                    1_GWF-(1,14868)
        461         10         11  1.02025084E-05                    1_GWF-(1,26622)  1.54476596E-07                    1_GWF-(1,10990)
        462         10         12  1.00983174E-05                    1_GWF-(1,26623)  4.16864182E-07                    1_GWF-(1,14869)
        463         10         13  8.16773634E-06                    1_GWF-(1,26586)  7.53920577E-07                    1_GWF-(1,14868)
        464         10         14  6.35303691E-06                    1_GWF-(1,26623)  6.26445159E-07                    1_GWF-(1,14869)
        465         10         15  5.89047310E-06                    1_GWF-(1,26622)  9.96144046E-07                    1_GWF-(1,14868)
        466         10         16  4.62487855E-06                    1_GWF-(1,21501) -9.07878421E-07                    1_GWF-(1,14868)
        467         10         17  4.29584275E-06                    1_GWF-(1,24675)  1.12407064E-06                    1_GWF-(1,14868)
        468         10         18  4.16470011E-06                    1_GWF-(1,24609) -1.13436097E-06                    1_GWF-(1,14868)
        469         10         19  4.11769531E-06                    1_GWF-(1,24683)  1.39564655E-06                    1_GWF-(1,14868)
        470         10         20 -5.61031372E-06                    1_GWF-(1,26589) -1.14372835E-06                    1_GWF-(1,14868)
        471         10         21 -8.30809947E-06                    1_GWF-(1,26588)  7.94607623E-07                    1_GWF-(1,14868)
        472         10         22 -5.99458329E-06                    1_GWF-(1,26543)  1.84958221E-07                    1_GWF-(1,14868)
        473         10         23 -5.26566175E-06                    1_GWF-(1,26588) -7.04049076E-07                    1_GWF-(1,14868)
        474         10         24 -4.54758767E-06                    1_GWF-(1,26421)  1.22823226E-06                    1_GWF-(1,14868)
        475         10         25 -6.15070638E-06                    1_GWF-(1,26350) -1.24196156E-06                    1_GWF-(1,14868)
        476         10         26 -6.64248796E-06                    1_GWF-(1,26422)  1.32046596E-06                    1_GWF-(1,14868)
        477         10         27 -5.86168815E-06                    1_GWF-(1,26350) -9.32187193E-07                    1_GWF-(1,14868)
        478         10         28 -4.93948789E-06                    1_GWF-(1,26422)  6.62857430E-07                    1_GWF-(1,14868)
        479         10         29  4.03695671E-06                    1_GWF-(1,26422)  1.36695710E-07                    1_GWF-(1,10872)
        480         10         30 -5.21209147E-06                    1_GWF-(1,26649) -4.72593607E-07                    1_GWF-(1,14868)
        481         10         31 -6.22071084E-06                    1_GWF-(1,26622)  7.61869874E-07                    1_GWF-(1,14868)
        482         10         32  4.89769417E-06                    1_GWF-(1,26422)  4.12780473E-07                    1_GWF-(1,14869)
        483         10         33  4.40105142E-06                    1_GWF-(1,26350)  1.54367856E-07                    1_GWF-(1,14782)
        484         10         34  3.73592564E-06                    1_GWF-(1,26422)  4.94096820E-07                    1_GWF-(1,14868)
        485         10         35  2.81114758E-06                    1_GWF-(1,26544) -5.95586054E-07                    1_GWF-(1,14868)
        486         10         36  3.16165417E-06                    1_GWF-(1,26486)  9.58425741E-07                    1_GWF-(1,14868)
        487         10         37 -3.25682357E-06                    1_GWF-(1,26486) -6.11834925E-07                    1_GWF-(1,14868)
        488         10         38 -3.44844054E-06                    1_GWF-(1,26487)  2.08375330E-07                    1_GWF-(1,14868)
        489         10         39 -3.48955202E-06                    1_GWF-(1,26420)  5.99280448E-07                    1_GWF-(1,14868)
        490         10         40 -3.19664764E-06                    1_GWF-(1,26487) -7.64464019E-07                    1_GWF-(1,14868)
        491         10         41 -2.69101649E-06                    1_GWF-(1,26420)  1.00974331E-06                    1_GWF-(1,14868)
        492         10         42 -2.13983796E-06                    1_GWF-(1,26666) -6.48664609E-07                    1_GWF-(1,14868)
        493         10         43 -2.72609060E-06                    1_GWF-(1,26665)  3.79417262E-07                    1_GWF-(1,14868)
        494         10         44 -1.98059920E-06                    1_GWF-(1,26666)  2.55871102E-07                    1_GWF-(1,14868)
        495         10         45  1.90938148E-06                    1_GWF-(1,26666) -5.22976636E-07                    1_GWF-(1,14868)
        496         10         46  2.15297809E-06                    1_GWF-(1,26665)  8.65975122E-07                    1_GWF-(1,14868)
        497         10         47  1.87634005E-06                    1_GWF-(1,26666) -8.47014874E-07                    1_GWF-(1,14868)
        498         10         48  1.71254206E-06                    1_GWF-(1,26665)  7.09322162E-07                    1_GWF-(1,14868)
        499         10         49  1.17158110E-06                    1_GWF-(1,26589) -4.82981997E-07                    1_GWF-(1,14868)
        500         10         50  1.28026663E-06                    1_GWF-(1,11249)  2.86996917E-07                    1_GWF-(1,14868)
        501         11          1  1.25952406E-06                    1_GWF-(1,26420) -4.80098753E-07                    1_GWF-(1,14868)
        502         11          2  2.13211729E-06                    1_GWF-(1,26487)  4.76106981E-07                    1_GWF-(1,14868)
        503         11          3  2.19034424E-06                    1_GWF-(1,26420) -3.21924786E-07                    1_GWF-(1,14868)
        504         11          4 -2.19081515E-06                    1_GWF-(1,26486)  7.66297652E-08                    1_GWF-(1,10873)
        505         11          5 -2.28554401E-06                    1_GWF-(1,26487)  3.66749026E-07                    1_GWF-(1,14868)
        506         11          6 -1.85628695E-06                    1_GWF-(1,26486) -5.29369384E-07                    1_GWF-(1,14868)
        507         11          7  1.31856258E-06                    1_GWF-(1,26622)  7.14839012E-07                    1_GWF-(1,14868)
        508         11          8  1.71350294E-06                    1_GWF-(1,26588) -3.83236979E-07                    1_GWF-(1,14868)
        509         11          9  2.10450907E-06                    1_GWF-(1,26543)  1.08489447E-07                    1_GWF-(1,14868)
        510         11         10  2.29866146E-06                    1_GWF-(1,26588)  4.04026629E-07                    1_GWF-(1,14868)
        511         11         11  1.83601036E-06                    1_GWF-(1,26589) -5.35261998E-07                    1_GWF-(1,14868)
        512         11         12  1.94159711E-06                    1_GWF-(1,26486)  7.59896646E-07                    1_GWF-(1,14868)
        513         11         13 -1.42334756E-06                    1_GWF-(1,26588) -5.39032165E-07                    1_GWF-(1,14868)
        514         11         14 -1.35893025E-06                    1_GWF-(1,26487)  3.75228003E-07                    1_GWF-(1,14868)
        515         11         15 -1.69209675E-06                    1_GWF-(1,26665)  1.05866577E-07                    1_GWF-(1,14868)
        516         11         16  2.02217079E-06                    1_GWF-(1,26665)  3.36463401E-07                    1_GWF-(1,14869)
        517         11         17 -1.96469684E-06                    1_GWF-(1,26665)  5.83292067E-07                    1_GWF-(1,14868)
        518         11         18 -1.94051577E-06                    1_GWF-(1,26622)  3.77455036E-07                    1_GWF-(1,14869)
        519         11         19 -1.90096950E-06                    1_GWF-(1,26649)  2.17986240E-07                    1_GWF-(1,14868)
        520         11         20  1.94348049E-06                    1_GWF-(1,26623)  1.94235752E-07                    1_GWF-(1,14868)
        521         11         21  2.58545843E-06                    1_GWF-(1,26622) -3.89843900E-07                    1_GWF-(1,14868)
        522         11         22  1.68207392E-06                    1_GWF-(1,26649)  5.27115124E-07                    1_GWF-(1,14868)
        523         11         23  1.74808503E-06                    1_GWF-(1,26665) -3.87641927E-07                    1_GWF-(1,14868)
        524         11         24  1.57214283E-06                    1_GWF-(1,26421)  2.95758580E-07                    1_GWF-(1,14868)
        525         11         25  1.83707948E-06                    1_GWF-(1,26350)  9.57787812E-08                    1_GWF-(1,10990)
        526         11         26  2.21134691E-06                    1_GWF-(1,26422)  8.57385573E-08                    1_GWF-(1,14869)
        527         11         27  2.01428044E-06                    1_GWF-(1,26350)  2.55069148E-07                    1_GWF-(1,14868)
        528         11         28  1.69932474E-06                    1_GWF-(1,26422) -3.34281634E-07                    1_GWF-(1,14868)
        529         11         29  1.44628075E-06                    1_GWF-(1,26544)  4.38133263E-07                    1_GWF-(1,14868)
        530         11         30  1.60377628E-06                    1_GWF-(1,26622) -2.55413067E-07                    1_GWF-(1,14868)
        531         11         31  1.55868800E-06                    1_GWF-(1,26649)  5.17980591E-08                    1_GWF-(1,10969)
        532         11         32 -1.28485234E-06                    1_GWF-(1,26422)  2.78299249E-07                    1_GWF-(1,14868)
        533         11         33 -1.38865485E-06                    1_GWF-(1,26350) -3.69175344E-07                    1_GWF-(1,14868)
        534         11         34 -1.45146021E-06                    1_GWF-(1,26422)  4.17593335E-07                    1_GWF-(1,14868)
        535         11         35 -9.44415117E-07                    1_GWF-(1,26350) -3.26674374E-07                    1_GWF-(1,14868)
        536         12          1  8.21104561E-07                    1_GWF-(1,26350)  3.56779969E-07                    1_GWF-(1,14868)
 --------------------------------------------------------------------------------------------------------------------------------------



 MEMORY MANAGER TOTAL STORAGE BY DATA TYPE, IN MEGABYTES
 -------------------------------
                    ALLOCATED   
 DATA TYPE           MEMORY     
 -------------------------------
 Character        4.66090000E-02
 Logical          4.40000000E-05
 Integer          5.2037920     
 Real             11.901376     
 -------------------------------
 Total            17.151821     
 -------------------------------


 
 Run end date and time (yyyy/mm/dd hh:mm:ss): 2022/05/27 18:31:19
 Elapsed run time:  0.596 Seconds
 Normal termination of simulation.
