                                   MODFLOW 6
                U.S. GEOLOGICAL SURVEY MODULAR HYDROLOGIC MODEL
                            VERSION 6.2.2 07/30/2021

   MODFLOW 6 compiled Jul 31 2021 14:22:53 with IFORT compiler (ver. 19.10.3)

This software has been approved for release by the U.S. Geological 
Survey (USGS). Although the software has been subjected to rigorous 
review, the USGS reserves the right to update the software as needed 
pursuant to further analysis and review. No warranty, expressed or 
implied, is made by the USGS or the U.S. Government as to the 
functionality of the software and related material nor shall the 
fact of release constitute any such warranty. Furthermore, the 
software is released on condition that neither the USGS nor the U.S. 
Government shall be held liable for any damages resulting from its 
authorized or unauthorized use. Also refer to the USGS Water 
Resources Software User Rights Notice for complete use, copyright, 
and distribution information.


System command used to initiate simulation:
mf6

MODFLOW was compiled using uniform precision.

Real Variables
  KIND: 8
  TINY (smallest non-zero value):    2.225074-308
  HUGE (largest value):    1.797693+308
  PRECISION: 15
  BIT SIZE: 64

Integer Variables
  KIND: 4
  HUGE (largest value): 2147483647
  BIT SIZE: 32

Long Integer Variables
  KIND: 8
  HUGE (largest value): 9223372036854775807
  BIT SIZE: 64

Logical Variables
  KIND: 4
  BIT SIZE: 32
 

 OPENED mfsim.nam
 FILE TYPE:NAM   UNIT 1001   STATUS:OLD                 
 FORMAT:FORMATTED              ACCESS:SEQUENTIAL          
 ACTION:READ                

 # File generated by Flopy version 3.3.5 on 04/28/2022 at 15:59:16.

 READING SIMULATION OPTIONS
 END OF SIMULATION OPTIONS

 READING SIMULATION TIMING

 OPENED mfsim.tdis
 FILE TYPE:TDIS   UNIT 1002   STATUS:OLD                 
 FORMAT:FORMATTED              ACCESS:SEQUENTIAL          
 ACTION:READ                


 TDIS -- TEMPORAL DISCRETIZATION PACKAGE,
 VERSION 1 : 11/13/2014 - INPUT READ FROM UNIT 1002
 # File generated by Flopy version 3.3.5 on 04/28/2022 at 15:59:16.
 PROCESSING TDIS OPTIONS
    SIMULATION TIME UNIT IS SECONDS
 END OF TDIS OPTIONS
 PROCESSING TDIS DIMENSIONS
    1 STRESS PERIOD(S) IN SIMULATION
 END OF TDIS DIMENSIONS
 PROCESSING TDIS PERIODDATA


 STRESS PERIOD     LENGTH       TIME STEPS     MULTIPLIER FOR DELT
 ----------------------------------------------------------------------------
        1         7.000000          1                    1.000
 END OF TDIS PERIODDATA
 END OF SIMULATION TIMING

 READING SIMULATION MODELS
    GWF6 model ML will be created as model 1
 END OF SIMULATION MODELS

 READING SIMULATION EXCHANGES
 END OF SIMULATION EXCHANGES

 READING SOLUTIONGROUP

 Creating solution: SLN_1           

 OPENED mfsim.ims
 FILE TYPE:IMS   UNIT 1015   STATUS:OLD                 
 FORMAT:FORMATTED              ACCESS:SEQUENTIAL          
 ACTION:READ                

 END OF SIMULATION SOLUTIONGROUP

 IMS -- ITERATIVE MODEL SOLUTION PACKAGE, VERSION 6, 4/28/2017
         INPUT READ FROM UNIT 1015
 # File generated by Flopy version 3.3.5 on 04/28/2022 at 15:59:16.

 PROCESSING IMS OPTIONS
 END OF IMS OPTIONS

 PROCESSING IMS NONLINEAR
 END OF IMS NONLINEAR DATA
 ***UNDER-RELAXATION WILL NOT BE USED***
 
 ***IMS LINEAR SOLVER WILL BE USED***

 IMSLINEAR -- UNSTRUCTURED LINEAR SOLUTION PACKAGE, VERSION 8, 04/28/2017

 PROCESSING LINEAR DATA
 END OF LINEAR DATA
 
 OUTER ITERATION CONVERGENCE CRITERION    (DVCLOSE) =    0.100000E-04
 MAXIMUM NUMBER OF OUTER ITERATIONS        (MXITER) = 100
 SOLVER PRINTOUT INDEX                     (IPRIMS) = 2
 NONLINEAR ITERATION METHOD            (NONLINMETH) = 0
 LINEAR SOLUTION METHOD                   (LINMETH) = 1

       SOLUTION BY THE        CONJUGATE-GRADIENT       METHOD
 ------------------------------------------------------------------
 MAXIMUM OF 100 CALLS OF SOLUTION ROUTINE
 MAXIMUM OF 50 INTERNAL ITERATIONS PER CALL TO SOLUTION ROUTINE
 LINEAR ACCELERATION METHOD            = CG        
 MATRIX PRECONDITIONING TYPE           = INCOMPLETE LU       
 MATRIX SCALING APPROACH               = NO SCALING          
 MATRIX REORDERING APPROACH            = ORIGINAL ORDERING        
 NUMBER OF ORTHOGONALIZATIONS          = 0
 HEAD CHANGE CRITERION FOR CLOSURE     =    0.10000E-05
 RESIDUAL CHANGE CRITERION FOR CLOSURE =    0.10000E-04
 RESIDUAL CONVERGENCE OPTION           = 1
 RESIDUAL CONVERGENCE NORM             = INFINITY NORM S 
 RELAXATION FACTOR                     =    0.00000E+00



 
    Solving:  Stress period:     1    Time step:     1
 
1
                            STRESS PERIOD NO. 1, LENGTH =   7.000000    
                            -----------------------------------------------
                            NUMBER OF TIME STEPS = 1
                            MULTIPLIER FOR DELT =     1.000
                            INITIAL TIME STEP SIZE =   7.000000    

 SLN_1 OUTER ITERATION SUMMARY
 ----------------------------------------------------------------------------------------------------------
                                OUTER      INNER                    STEP   MAXIMUM CHANGE MODEL-(CELLID) OR
 OUTER ITERATION STEP       ITERATION  ITERATION  MAXIMUM CHANGE SUCCESS             MODEL-PACKAGE-(NUMBER)
 ----------------------------------------------------------------------------------------------------------
 Model                              1         50       41.183134                            1_GWF-(1,26519)
 Model                              2         50      -36.272725                            1_GWF-(1,26519)
 Model                              3         50      0.28802575                            1_GWF-(1,24079)
 Model                              4         50 -6.39274477E-02                            1_GWF-(1,21415)
 Model                              5         50 -7.76731652E-03                            1_GWF-(1,11378)
 Model                              6         50 -8.31200516E-04                            1_GWF-(1,21455)
 Model                              7         49 -3.47769071E-05                             1_GWF-(1,8200)
 Model                              8          1 -3.77601211E-07       *                    1_GWF-(1,26649)
 ----------------------------------------------------------------------------------------------------------


 8 CALLS TO NUMERICAL SOLUTION IN TIME STEP 1 STRESS PERIOD 1
 350 TOTAL ITERATIONS

 SLN_1 INNER ITERATION SUMMARY
 --------------------------------------------------------------------------------------------------------------------------------------
      TOTAL      OUTER      INNER                                                            MAXIMUM                                   
  ITERATION  ITERATION  ITERATION  MAXIMUM CHANGE      MAXIMUM CHANGE MODEL-(CELLID)        RESIDUAL    MAXIMUM RESIDUAL MODEL-(CELLID)
 --------------------------------------------------------------------------------------------------------------------------------------
          1          1          1      -11.826326                    1_GWF-(1,12785)      0.66548399                    1_GWF-(1,11179)
          2          1          2       7.9460808                    1_GWF-(1,26564)     -0.36520663                    1_GWF-(1,11175)
          3          1          3       8.5855532                    1_GWF-(1,26565)     -0.32927159                    1_GWF-(1,11178)
          4          1          4       8.3241621                    1_GWF-(1,26564)      0.32154490                    1_GWF-(1,11180)
          5          1          5       8.5495239                    1_GWF-(1,26611)      0.29399610                    1_GWF-(1,11157)
          6          1          6       9.1976342                    1_GWF-(1,26649)      0.22745906                    1_GWF-(1,11158)
          7          1          7       9.2880913                    1_GWF-(1,26622)     -0.25773077                    1_GWF-(1,11208)
          8          1          8       7.4175167                    1_GWF-(1,26665)      0.14913746                    1_GWF-(1,10961)
          9          1          9      -5.6879778                    1_GWF-(1,26665)      0.15049604                    1_GWF-(1,11158)
         10          1         10      -5.6643680                    1_GWF-(1,26666)      0.15586839                    1_GWF-(1,11207)
         11          1         11      -5.3147903                    1_GWF-(1,26665)     -0.14568474                    1_GWF-(1,11207)
         12          1         12      -5.0975024                    1_GWF-(1,26622)      0.10898346                    1_GWF-(1,11059)
         13          1         13      -6.0057463                    1_GWF-(1,26649)  9.18764001E-02                    1_GWF-(1,11052)
         14          1         14      -4.8967203                    1_GWF-(1,26622)  8.47440982E-02                    1_GWF-(1,11050)
         15          1         15      -3.9018779                    1_GWF-(1,26623)  8.27483198E-02                    1_GWF-(1,11017)
         16          1         16      -3.0412146                    1_GWF-(1,26622)  8.16968049E-02                    1_GWF-(1,11058)
         17          1         17      -3.5722211                    1_GWF-(1,26588)      0.10978290                    1_GWF-(1,10873)
         18          1         18      -4.6588793                    1_GWF-(1,26543)     -0.10129882                    1_GWF-(1,11152)
         19          1         19      -6.1540046                    1_GWF-(1,26588)  8.51622342E-02                    1_GWF-(1,11194)
         20          1         20      -4.9811567                    1_GWF-(1,26543)  8.78746923E-02                    1_GWF-(1,11151)
         21          1         21      -3.5748891                    1_GWF-(1,26544) -8.19502167E-02                    1_GWF-(1,11152)
         22          1         22      -3.8698343                    1_GWF-(1,26486) -8.92540375E-02                    1_GWF-(1,11151)
         23          1         23      -3.7328603                    1_GWF-(1,26487)  7.62553306E-02                    1_GWF-(1,11151)
         24          1         24       3.5176072                    1_GWF-(1,26487)  6.62785103E-02                    1_GWF-(1,11108)
         25          1         25       4.6263307                    1_GWF-(1,26420) -6.70028748E-02                    1_GWF-(1,11151)
         26          1         26       4.8447452                    1_GWF-(1,26487) -7.94517831E-02                    1_GWF-(1,11108)
         27          1         27       4.0594950                    1_GWF-(1,26420)  6.59110445E-02                    1_GWF-(1,11108)
         28          1         28       2.9460798                    1_GWF-(1,26487) -5.90694312E-02                    1_GWF-(1,11149)
         29          1         29       2.2232868                    1_GWF-(1,26542) -5.71265957E-02                    1_GWF-(1,11150)
         30          1         30       1.8570304                    1_GWF-(1,26623) -5.89534504E-02                    1_GWF-(1,11063)
         31          1         31       1.9957015                    1_GWF-(1,26586)  5.03657512E-02                    1_GWF-(1,11158)
         32          1         32       1.7426881                    1_GWF-(1,26422) -4.81975214E-02                    1_GWF-(1,11053)
         33          1         33      -1.9871030                    1_GWF-(1,26422) -5.16017458E-02                    1_GWF-(1,11155)
         34          1         34      -2.0337620                    1_GWF-(1,26350) -4.55085307E-02                    1_GWF-(1,11154)
         35          1         35      -2.0823577                    1_GWF-(1,26422)  4.88968075E-02                    1_GWF-(1,11154)
         36          1         36      -1.9073173                    1_GWF-(1,26350) -4.94990658E-02                    1_GWF-(1,11153)
         37          1         37      -1.7285456                    1_GWF-(1,26422)  4.88722903E-02                    1_GWF-(1,11064)
         38          1         38      -1.5832144                    1_GWF-(1,26648)  5.65905968E-02                    1_GWF-(1,11063)
         39          1         39      -1.5142544                    1_GWF-(1,26649)  4.33044423E-02                    1_GWF-(1,11150)
         40          1         40      -1.4874678                    1_GWF-(1,26623)  3.30334050E-02                    1_GWF-(1,11110)
         41          1         41      -1.3039798                    1_GWF-(1,26649) -3.42933477E-02                    1_GWF-(1,11150)
         42          1         42      -1.1585013                    1_GWF-(1,26623)  3.86695029E-02                    1_GWF-(1,11150)
         43          1         43     -0.98641008                    1_GWF-(1,21484) -3.99188267E-02                    1_GWF-(1,11151)
         44          1         44     -0.98684615                    1_GWF-(1,21412) -4.19838201E-02                    1_GWF-(1,11108)
         45          1         45      -1.2516488                    1_GWF-(1,21259) -3.01095420E-02                    1_GWF-(1,11061)
         46          1         46      -1.1627603                    1_GWF-(1,20925)  3.35316795E-02                    1_GWF-(1,14801)
         47          1         47      -1.2218920                    1_GWF-(1,20919) -4.41479953E-02                    1_GWF-(1,14801)
         48          1         48     -0.91306582                    1_GWF-(1,20918)  5.56671753E-02                    1_GWF-(1,14801)
         49          1         49     -0.67929723                    1_GWF-(1,26217) -5.96713094E-02                    1_GWF-(1,14801)
         50          1         50     -0.62086151                    1_GWF-(1,26218)  7.89306310E-02                    1_GWF-(1,14801)
         51          2          1      -37.302703                    1_GWF-(1,26519)     -0.16607391                    1_GWF-(1,26519)
         52          2          2      -13.928086                    1_GWF-(1,26607) -6.39428225E-02                    1_GWF-(1,26516)
         53          2          3      -7.2083766                    1_GWF-(1,26637)  4.30601841E-02                    1_GWF-(1,26516)
         54          2          4      -7.0969442                    1_GWF-(1,26665)  4.96159422E-02                    1_GWF-(1,14801)
         55          2          5      -4.6218848                    1_GWF-(1,26649) -4.79748950E-02                    1_GWF-(1,14801)
         56          2          6      -3.5307120                    1_GWF-(1,26589)  6.45023751E-02                    1_GWF-(1,14801)
         57          2          7      -3.0126852                    1_GWF-(1,26543) -7.22556697E-02                    1_GWF-(1,14801)
         58          2          8      -2.6475201                    1_GWF-(1,26544)      0.11205519                    1_GWF-(1,14801)
         59          2          9      -1.9257946                    1_GWF-(1,26487) -9.62051480E-02                    1_GWF-(1,14801)
         60          2         10      -1.5960788                    1_GWF-(1,26421)  8.80232285E-02                    1_GWF-(1,14801)
         61          2         11      -1.4881100                    1_GWF-(1,26422)  1.56165161E-02                    1_GWF-(1,14800)
         62          2         12      -1.1846799                    1_GWF-(1,26217)  3.33504627E-02                    1_GWF-(1,14800)
         63          2         13     -0.90785362                    1_GWF-(1,26218)  6.49119280E-02                    1_GWF-(1,14801)
         64          2         14     -0.57730359                    1_GWF-(1,26649) -6.48981954E-02                    1_GWF-(1,14801)
         65          2         15     -0.62828466                    1_GWF-(1,26622)  5.96524195E-02                    1_GWF-(1,14801)
         66          2         16     -0.81879657                    1_GWF-(1,25775)  1.58648408E-02                    1_GWF-(1,14801)
         67          2         17      0.88750576                    1_GWF-(1,26350)  6.36459933E-02                    1_GWF-(1,14800)
         68          2         18      0.88671616                    1_GWF-(1,26217)  8.93696266E-02                    1_GWF-(1,14801)
         69          2         19      0.65881275                    1_GWF-(1,26218)  6.63374276E-02                    1_GWF-(1,14800)
         70          2         20      0.47381807                    1_GWF-(1,26543)  5.13908253E-02                    1_GWF-(1,14801)
         71          2         21      0.70617064                    1_GWF-(1,26588)  1.02771140E-02                    1_GWF-(1,14801)
         72          2         22      0.74771289                    1_GWF-(1,26543)  4.66236313E-02                    1_GWF-(1,14800)
         73          2         23      0.45104988                    1_GWF-(1,26544)  8.22540288E-02                    1_GWF-(1,14801)
         74          2         24     -0.50547879                    1_GWF-(1,26422)  7.30236749E-02                    1_GWF-(1,14800)
         75          2         25     -0.70124815                    1_GWF-(1,26486)  6.20857193E-02                    1_GWF-(1,14801)
         76          2         26     -0.75592297                    1_GWF-(1,26487)  1.13739093E-02                    1_GWF-(1,14800)
         77          2         27     -0.50494883                    1_GWF-(1,26420)  3.89365929E-02                    1_GWF-(1,14800)
         78          2         28     -0.27134949                    1_GWF-(1,26543)  6.85610471E-02                    1_GWF-(1,14801)
         79          2         29      0.28387686                    1_GWF-(1,26487)  6.68534580E-02                    1_GWF-(1,14800)
         80          2         30      0.28569300                    1_GWF-(1,26420)  8.86837364E-02                    1_GWF-(1,14801)
         81          2         31      0.23330266                    1_GWF-(1,25268) -8.02765383E-02                    1_GWF-(1,14801)
         82          2         32      0.26194519                    1_GWF-(1,26218)  8.81650067E-02                    1_GWF-(1,14801)
         83          2         33      0.27636358                    1_GWF-(1,26217)  6.03874327E-02                    1_GWF-(1,14800)
         84          2         34     -0.21017684                    1_GWF-(1,26217)  4.80241222E-02                    1_GWF-(1,14801)
         85          2         35      0.18826959                    1_GWF-(1,26422)  3.03016294E-02                    1_GWF-(1,14800)
         86          2         36      0.18660950                    1_GWF-(1,26218)  2.54635530E-02                    1_GWF-(1,14801)
         87          2         37     -0.20472574                    1_GWF-(1,21290)  1.62864266E-02                    1_GWF-(1,14800)
         88          2         38     -0.20729862                    1_GWF-(1,21282)  1.36746760E-02                    1_GWF-(1,14801)
         89          2         39     -0.19324175                    1_GWF-(1,20937)  7.57194452E-03                    1_GWF-(1,14800)
         90          2         40     -0.18955910                    1_GWF-(1,20915)  5.12209286E-03                    1_GWF-(1,14801)
         91          2         41     -0.15160827                    1_GWF-(1,20908)  7.31140248E-03                    1_GWF-(1,14801)
         92          2         42      0.16091707                    1_GWF-(1,21364)  9.35557204E-03                    1_GWF-(1,14800)
         93          2         43     -0.19507914                    1_GWF-(1,26350)  1.27080594E-02                    1_GWF-(1,14801)
         94          2         44      0.21055074                    1_GWF-(1,21283)  1.22318846E-02                    1_GWF-(1,14800)
         95          2         45      0.20111322                    1_GWF-(1,21265)  1.49228318E-02                    1_GWF-(1,14801)
         96          2         46      0.17943539                    1_GWF-(1,20917)  1.15058377E-02                    1_GWF-(1,14800)
         97          2         47      0.13677523                    1_GWF-(1,20232)  1.05380732E-02                    1_GWF-(1,14801)
         98          2         48 -9.53813497E-02                    1_GWF-(1,26422)  6.92784488E-03                    1_GWF-(1,14800)
         99          2         49 -8.94905621E-02                    1_GWF-(1,26586)  6.62471474E-03                    1_GWF-(1,14801)
        100          2         50 -7.55342153E-02                    1_GWF-(1,20584)  4.98543622E-03                    1_GWF-(1,15939)
        101          3          1     -0.12530101                    1_GWF-(1,11442) -5.47636401E-03                    1_GWF-(1,11378)
        102          3          2     -0.12930874                    1_GWF-(1,11437)  5.44026414E-03                    1_GWF-(1,14800)
        103          3          3  6.93409710E-02                    1_GWF-(1,26623)  7.10270736E-03                    1_GWF-(1,14801)
        104          3          4  6.48334288E-02                    1_GWF-(1,26649)  5.78963914E-03                    1_GWF-(1,14800)
        105          3          5 -7.88114532E-02                    1_GWF-(1,21260)  7.35720140E-03                    1_GWF-(1,14801)
        106          3          6 -6.41189760E-02                    1_GWF-(1,26422)  6.70634179E-03                    1_GWF-(1,14800)
        107          3          7 -6.24852569E-02                    1_GWF-(1,26350)  6.56218061E-03                    1_GWF-(1,14801)
        108          3          8 -7.32421801E-02                    1_GWF-(1,26422)  5.03491481E-03                    1_GWF-(1,14800)
        109          3          9 -7.63711521E-02                    1_GWF-(1,26350)  5.83123224E-03                    1_GWF-(1,14801)
        110          3         10  7.09935020E-02                    1_GWF-(1,20224)  4.03398057E-03                    1_GWF-(1,14800)
        111          3         11  6.53748537E-02                    1_GWF-(1,26422)  3.33294362E-03                    1_GWF-(1,15939)
        112          3         12 -5.01359925E-02                    1_GWF-(1,26422) -2.68030781E-03                    1_GWF-(1,15939)
        113          3         13  4.89526531E-02                    1_GWF-(1,21332) -1.65153672E-03                    1_GWF-(1,11378)
        114          3         14  4.66485236E-02                    1_GWF-(1,21329) -1.74422506E-03                    1_GWF-(1,14800)
        115          3         15  3.51364026E-02                    1_GWF-(1,20989) -3.08258472E-03                    1_GWF-(1,14801)
        116          3         16 -4.66278422E-02                    1_GWF-(1,26665)  3.72636243E-03                    1_GWF-(1,14801)
        117          3         17 -4.45678877E-02                    1_GWF-(1,26672) -4.56329668E-03                    1_GWF-(1,14801)
        118          3         18 -3.66557300E-02                    1_GWF-(1,26673)  6.78716581E-03                    1_GWF-(1,14801)
        119          3         19  3.08600162E-02                    1_GWF-(1,26673)  7.52144889E-03                    1_GWF-(1,14800)
        120          3         20  4.18740124E-02                    1_GWF-(1,26672)  1.04237808E-02                    1_GWF-(1,14801)
        121          3         21 -3.67167240E-02                    1_GWF-(1,20890) -1.01048918E-02                    1_GWF-(1,14801)
        122          3         22  3.10868037E-02                    1_GWF-(1,24848)  1.24680006E-02                    1_GWF-(1,14801)
        123          3         23 -3.20542259E-02                    1_GWF-(1,20222) -1.22716302E-02                    1_GWF-(1,14801)
        124          3         24  4.67072879E-02                    1_GWF-(1,26588)  1.10570151E-02                    1_GWF-(1,14801)
        125          3         25  5.57075179E-02                    1_GWF-(1,26487)  3.40073877E-03                    1_GWF-(1,14800)
        126          3         26  5.67294979E-02                    1_GWF-(1,26420)  3.86660651E-03                    1_GWF-(1,14800)
        127          3         27  4.59991787E-02                    1_GWF-(1,26487)  9.34932605E-03                    1_GWF-(1,14801)
        128          3         28  3.05689274E-02                    1_GWF-(1,25257) -1.09620499E-02                    1_GWF-(1,14801)
        129          3         29  3.62027535E-02                    1_GWF-(1,26622)  9.10103998E-03                    1_GWF-(1,14801)
        130          3         30 -3.65078177E-02                    1_GWF-(1,26622)  3.15400646E-03                    1_GWF-(1,14800)
        131          3         31 -4.33221263E-02                    1_GWF-(1,26649)  2.87263681E-03                    1_GWF-(1,14800)
        132          3         32 -4.65920010E-02                    1_GWF-(1,26622)  7.35573710E-03                    1_GWF-(1,14801)
        133          3         33 -3.51159495E-02                    1_GWF-(1,26649) -7.95189318E-03                    1_GWF-(1,14801)
        134          3         34  2.98016321E-02                    1_GWF-(1,25735)  7.35792363E-03                    1_GWF-(1,14801)
        135          3         35 -3.62305865E-02                    1_GWF-(1,26665)  2.74604910E-03                    1_GWF-(1,14800)
        136          3         36  4.15234324E-02                    1_GWF-(1,26665) -7.96608660E-04                    1_GWF-(1,15942)
        137          3         37  3.76819395E-02                    1_GWF-(1,26666)  2.99618014E-03                    1_GWF-(1,14801)
        138          3         38  2.84596283E-02                    1_GWF-(1,26665) -3.77308728E-03                    1_GWF-(1,14801)
        139          3         39  1.84196061E-02                    1_GWF-(1,26350)  3.56264757E-03                    1_GWF-(1,14801)
        140          3         40  2.18772424E-02                    1_GWF-(1,26421) -2.72546592E-03                    1_GWF-(1,14801)
        141          3         41  2.64221301E-02                    1_GWF-(1,26486) -9.23702831E-04                    1_GWF-(1,15939)
        142          3         42  2.92002315E-02                    1_GWF-(1,26487)  1.47264726E-03                    1_GWF-(1,14801)
        143          3         43  2.85553448E-02                    1_GWF-(1,26486) -2.73349827E-03                    1_GWF-(1,14801)
        144          3         44  2.82716831E-02                    1_GWF-(1,26588) -2.40437101E-03                    1_GWF-(1,14800)
        145          3         45  1.99637287E-02                    1_GWF-(1,26622) -2.27874490E-03                    1_GWF-(1,14801)
        146          3         46  2.00366284E-02                    1_GWF-(1,26649) -1.51133826E-03                    1_GWF-(1,14800)
        147          3         47 -1.74598151E-02                    1_GWF-(1,26138) -1.44185859E-03                    1_GWF-(1,14801)
        148          3         48 -1.62851783E-02                    1_GWF-(1,26162) -8.67860123E-04                    1_GWF-(1,15939)
        149          3         49 -1.76116434E-02                    1_GWF-(1,26649)  6.74512013E-04                    1_GWF-(1,15939)
        150          3         50 -1.48624987E-02                    1_GWF-(1,26623)  4.75211516E-04                    1_GWF-(1,15854)
        151          4          1 -1.71799493E-02                    1_GWF-(1,11936)  3.98500910E-04                    1_GWF-(1,15939)
        152          4          2 -8.41641715E-03                    1_GWF-(1,11935) -3.84607171E-04                    1_GWF-(1,15939)
        153          4          3 -8.94615495E-03                    1_GWF-(1,26217) -6.00651141E-04                    1_GWF-(1,14801)
        154          4          4 -9.17954349E-03                    1_GWF-(1,26218) -5.73688068E-04                    1_GWF-(1,14800)
        155          4          5 -7.44041911E-03                    1_GWF-(1,26217) -7.42960709E-04                    1_GWF-(1,14801)
        156          4          6 -8.17329457E-03                    1_GWF-(1,20216) -7.60773478E-04                    1_GWF-(1,14800)
        157          4          7 -7.26058934E-03                    1_GWF-(1,20577) -9.23948609E-04                    1_GWF-(1,14801)
        158          4          8 -6.09800946E-03                    1_GWF-(1,20574)  5.89819650E-04                    1_GWF-(1,14801)
        159          4          9  6.83183366E-03                    1_GWF-(1,26486)  2.27469146E-04                    1_GWF-(1,14800)
        160          4         10  6.79771748E-03                    1_GWF-(1,26487) -2.84893353E-04                    1_GWF-(1,14801)
        161          4         11  5.69615348E-03                    1_GWF-(1,26486)  5.59740022E-04                    1_GWF-(1,14801)
        162          4         12  4.21757097E-03                    1_GWF-(1,26487)  6.68156070E-04                    1_GWF-(1,14800)
        163          4         13 -5.26818194E-03                    1_GWF-(1,26674)  7.38351109E-04                    1_GWF-(1,14801)
        164          4         14 -5.49601251E-03                    1_GWF-(1,26666) -5.00440891E-04                    1_GWF-(1,14801)
        165          4         15  5.79461433E-03                    1_GWF-(1,26666)  1.54903810E-04                    1_GWF-(1,14801)
        166          4         16  7.12886847E-03                    1_GWF-(1,26665)  4.78074784E-04                    1_GWF-(1,14801)
        167          4         17 -5.52779160E-03                    1_GWF-(1,20586)  6.41606332E-04                    1_GWF-(1,14800)
        168          4         18 -3.87936294E-03                    1_GWF-(1,20732)  7.98474206E-04                    1_GWF-(1,14801)
        169          4         19  4.27663923E-03                    1_GWF-(1,26622)  6.10764483E-04                    1_GWF-(1,14800)
        170          4         20 -4.16317063E-03                    1_GWF-(1,26622)  3.46584023E-04                    1_GWF-(1,14801)
        171          4         21 -5.02855954E-03                    1_GWF-(1,26649)  3.01796123E-04                    1_GWF-(1,14801)
        172          4         22 -4.46360261E-03                    1_GWF-(1,26622) -6.10472746E-04                    1_GWF-(1,14801)
        173          4         23 -4.34627513E-03                    1_GWF-(1,26486)  8.31552362E-04                    1_GWF-(1,14801)
        174          4         24 -4.34727951E-03                    1_GWF-(1,26487) -6.00489855E-04                    1_GWF-(1,14801)
        175          4         25 -4.26257040E-03                    1_GWF-(1,26588)  3.10381122E-04                    1_GWF-(1,14801)
        176          4         26 -3.57271711E-03                    1_GWF-(1,26487)  1.97886543E-04                    1_GWF-(1,14801)
        177          4         27 -2.72733412E-03                    1_GWF-(1,26420)  4.50797024E-04                    1_GWF-(1,14800)
        178          4         28 -2.24589954E-03                     1_GWF-(1,8218)  7.08255748E-04                    1_GWF-(1,14801)
        179          4         29 -1.67900954E-03                    1_GWF-(1,23297) -7.51479224E-04                    1_GWF-(1,14801)
        180          4         30 -1.72769819E-03                    1_GWF-(1,23180)  7.57483418E-04                    1_GWF-(1,14801)
        181          4         31  1.70622928E-03                    1_GWF-(1,26422) -5.42460415E-04                    1_GWF-(1,14801)
        182          4         32  1.86081700E-03                    1_GWF-(1,26218)  4.64312057E-04                    1_GWF-(1,14801)
        183          4         33  1.39388208E-03                    1_GWF-(1,26217) -2.91960058E-04                    1_GWF-(1,14801)
        184          4         34  1.24636479E-03                    1_GWF-(1,26350)  2.05782276E-04                    1_GWF-(1,14801)
        185          4         35  1.27395703E-03                    1_GWF-(1,26422) -1.60469821E-04                    1_GWF-(1,14801)
        186          4         36  1.33401719E-03                     1_GWF-(1,7967)  7.84476356E-05                    1_GWF-(1,14801)
        187          4         37  1.23138342E-03                     1_GWF-(1,7967)  7.92954539E-05                    1_GWF-(1,15939)
        188          4         38  1.08875439E-03                    1_GWF-(1,20233) -8.64814675E-05                    1_GWF-(1,15939)
        189          4         39  9.19572131E-04                     1_GWF-(1,8068)  7.16061649E-05                    1_GWF-(1,15939)
        190          4         40 -1.22609504E-03                    1_GWF-(1,26422)  8.36639926E-05                    1_GWF-(1,14799)
        191          4         41 -1.17882871E-03                    1_GWF-(1,26350)  6.61369068E-05                    1_GWF-(1,14801)
        192          4         42 -1.15885834E-03                    1_GWF-(1,26422)  6.52716293E-05                    1_GWF-(1,14800)
        193          4         43 -1.09870634E-03                    1_GWF-(1,26350)  8.55791076E-05                    1_GWF-(1,14801)
        194          4         44 -1.00471834E-03                    1_GWF-(1,26422)  7.10150452E-05                    1_GWF-(1,14800)
        195          4         45 -8.34263639E-04                    1_GWF-(1,20180)  8.49166550E-05                    1_GWF-(1,14801)
        196          4         46 -8.34665253E-04                    1_GWF-(1,26422)  7.21956376E-05                    1_GWF-(1,14800)
        197          4         47 -6.70855623E-04                    1_GWF-(1,26350)  7.43157847E-05                    1_GWF-(1,14801)
        198          4         48  6.20882589E-04                    1_GWF-(1,26350)  5.45057161E-05                    1_GWF-(1,14800)
        199          4         49  7.90074542E-04                    1_GWF-(1,11437)  5.84467070E-05                    1_GWF-(1,14801)
        200          4         50  7.55042689E-04                    1_GWF-(1,26586)  3.97689848E-05                    1_GWF-(1,14800)
        201          5          1 -6.91357048E-03                    1_GWF-(1,11378)  2.91733707E-05                    1_GWF-(1,14801)
        202          5          2 -1.98145107E-03                    1_GWF-(1,11369)  2.67814065E-05                    1_GWF-(1,14800)
        203          5          3 -1.01439551E-03                    1_GWF-(1,11456)  3.89517106E-05                    1_GWF-(1,14801)
        204          5          4 -7.53297115E-04                    1_GWF-(1,11458)  4.22393251E-05                    1_GWF-(1,14800)
        205          5          5  6.43905568E-04                    1_GWF-(1,11453)  6.19968071E-05                    1_GWF-(1,14801)
        206          5          6  7.36339289E-04                    1_GWF-(1,11460)  5.48789098E-05                    1_GWF-(1,14800)
        207          5          7  6.02278728E-04                    1_GWF-(1,11959)  6.47090769E-05                    1_GWF-(1,14801)
        208          5          8  6.20312256E-04                    1_GWF-(1,11997)  4.96092088E-05                    1_GWF-(1,14800)
        209          5          9  6.96480066E-04                    1_GWF-(1,11988)  4.89027137E-05                    1_GWF-(1,14801)
        210          5         10  6.24504727E-04                    1_GWF-(1,11981)  3.82056624E-05                    1_GWF-(1,14799)
        211          5         11  6.35258153E-04                    1_GWF-(1,26649)  3.37341665E-05                    1_GWF-(1,14800)
        212          5         12 -6.51917101E-04                    1_GWF-(1,26649)  5.04608351E-05                    1_GWF-(1,14801)
        213          5         13 -5.50101548E-04                    1_GWF-(1,26486)  3.59339665E-05                    1_GWF-(1,14800)
        214          5         14  4.59208040E-04                    1_GWF-(1,26486)  2.82936715E-05                    1_GWF-(1,14801)
        215          5         15 -4.98330849E-04                    1_GWF-(1,26486)  2.47102837E-05                    1_GWF-(1,14799)
        216          5         16 -4.28703427E-04                    1_GWF-(1,26350) -2.38053644E-05                    1_GWF-(1,14799)
        217          5         17 -4.84000137E-04                    1_GWF-(1,26486)  2.92124657E-05                    1_GWF-(1,14799)
        218          5         18 -4.18447371E-04                    1_GWF-(1,26487) -2.17532941E-05                    1_GWF-(1,14799)
        219          5         19 -5.46814455E-04                    1_GWF-(1,26486)  2.78475546E-05                    1_GWF-(1,14799)
        220          5         20 -6.08390172E-04                    1_GWF-(1,26487)  2.42294756E-05                    1_GWF-(1,14800)
        221          5         21 -5.36479878E-04                    1_GWF-(1,26486)  1.93542676E-05                    1_GWF-(1,14798)
        222          5         22 -4.23315098E-04                    1_GWF-(1,26487)  3.46959073E-05                    1_GWF-(1,14799)
        223          5         23 -2.78637181E-04                    1_GWF-(1,21009)  2.36487117E-05                    1_GWF-(1,14798)
        224          5         24  3.71680781E-04                     1_GWF-(1,8212)  3.13232785E-05                    1_GWF-(1,14801)
        225          5         25  4.00873575E-04                     1_GWF-(1,8047) -4.47065838E-05                    1_GWF-(1,14801)
        226          5         26  3.05912962E-04                     1_GWF-(1,8043)  5.93981062E-05                    1_GWF-(1,14801)
        227          5         27  3.34350754E-04                    1_GWF-(1,26588)  6.22121061E-05                    1_GWF-(1,14800)
        228          5         28  3.37532255E-04                    1_GWF-(1,26543)  7.96752691E-05                    1_GWF-(1,14801)
        229          5         29  3.97028535E-04                    1_GWF-(1,26588) -6.95911435E-05                    1_GWF-(1,14801)
        230          5         30 -4.07839502E-04                    1_GWF-(1,26588)  2.47948477E-05                    1_GWF-(1,14801)
        231          5         31 -3.39658212E-04                    1_GWF-(1,26665)  2.42648088E-05                    1_GWF-(1,14801)
        232          5         32 -3.08882425E-04                    1_GWF-(1,26588) -4.84897330E-05                    1_GWF-(1,14801)
        233          5         33 -2.16858550E-04                    1_GWF-(1,26543)  7.70419203E-05                    1_GWF-(1,14801)
        234          5         34 -1.72603457E-04                    1_GWF-(1,26350) -8.73634451E-05                    1_GWF-(1,14801)
        235          5         35 -1.67898690E-04                    1_GWF-(1,26422)  1.01044969E-04                    1_GWF-(1,14801)
        236          5         36  1.32546894E-04                    1_GWF-(1,21268) -8.30542532E-05                    1_GWF-(1,14801)
        237          5         37 -1.14836606E-04                    1_GWF-(1,22533)  6.91693455E-05                    1_GWF-(1,14801)
        238          5         38  1.26032703E-04                     1_GWF-(1,8184) -4.86851848E-05                    1_GWF-(1,14801)
        239          5         39  1.42959038E-04                     1_GWF-(1,8092)  3.67162645E-05                    1_GWF-(1,14801)
        240          5         40 -1.71015223E-04                    1_GWF-(1,26665) -1.39915793E-05                    1_GWF-(1,14801)
        241          5         41  1.61713679E-04                    1_GWF-(1,26665) -8.65918024E-06                    1_GWF-(1,14801)
        242          5         42 -1.77290014E-04                    1_GWF-(1,26665)  2.67829364E-05                    1_GWF-(1,14801)
        243          5         43  1.55697762E-04                    1_GWF-(1,26665) -3.26843052E-05                    1_GWF-(1,14801)
        244          5         44 -1.25222953E-04                    1_GWF-(1,26665) -2.57882887E-05                    1_GWF-(1,14800)
        245          5         45 -1.08369749E-04                    1_GWF-(1,25541) -2.38547078E-05                    1_GWF-(1,14801)
        246          5         46 -9.37518960E-05                    1_GWF-(1,25533) -1.45772660E-05                    1_GWF-(1,14800)
        247          5         47 -9.03052320E-05                    1_GWF-(1,25794) -1.28720576E-05                    1_GWF-(1,14801)
        248          5         48 -9.39400045E-05                    1_GWF-(1,26135) -1.53771503E-05                    1_GWF-(1,14799)
        249          5         49 -8.55029602E-05                    1_GWF-(1,20572)  1.33468126E-05                    1_GWF-(1,14799)
        250          5         50 -8.50630634E-05                    1_GWF-(1,20572) -1.58636910E-05                    1_GWF-(1,14799)
        251          6          1 -5.79127337E-05                    1_GWF-(1,26217)  1.54241818E-05                    1_GWF-(1,14799)
        252          6          2 -7.27452703E-05                    1_GWF-(1,26218) -1.92806007E-05                    1_GWF-(1,14799)
        253          6          3 -7.68236789E-05                    1_GWF-(1,20979)  1.60247588E-05                    1_GWF-(1,14799)
        254          6          4 -8.12770141E-05                    1_GWF-(1,21356) -1.32044812E-05                    1_GWF-(1,14799)
        255          6          5 -8.92151988E-05                    1_GWF-(1,26487) -6.61258383E-06                    1_GWF-(1,14801)
        256          6          6 -1.01889206E-04                    1_GWF-(1,26486) -4.67108565E-06                    1_GWF-(1,14798)
        257          6          7 -8.33105096E-05                    1_GWF-(1,26487) -1.13860154E-05                    1_GWF-(1,14799)
        258          6          8 -7.62586996E-05                    1_GWF-(1,21689)  1.19259018E-05                    1_GWF-(1,14799)
        259          6          9 -7.37977047E-05                    1_GWF-(1,21681) -1.28053981E-05                    1_GWF-(1,14799)
        260          6         10 -6.38237891E-05                    1_GWF-(1,21679) -1.11702483E-05                    1_GWF-(1,14801)
        261          6         11 -5.81864834E-05                     1_GWF-(1,8090)  1.14533201E-05                    1_GWF-(1,14801)
        262          6         12  5.44870750E-05                    1_GWF-(1,26665)  7.96305797E-06                    1_GWF-(1,14800)
        263          6         13 -6.33746419E-05                    1_GWF-(1,26665)  4.45577533E-06                    1_GWF-(1,14801)
        264          6         14 -5.50163001E-05                    1_GWF-(1,26666)  5.22905897E-06                    1_GWF-(1,14798)
        265          6         15 -5.06885375E-05                    1_GWF-(1,21274)  7.99070045E-06                    1_GWF-(1,14799)
        266          6         16 -5.90439237E-05                    1_GWF-(1,21269)  1.10430344E-05                    1_GWF-(1,14801)
        267          6         17 -5.27936027E-05                    1_GWF-(1,20610) -1.18372818E-05                    1_GWF-(1,14801)
        268          6         18 -4.94045966E-05                    1_GWF-(1,20736)  1.25633071E-05                    1_GWF-(1,14801)
        269          6         19 -4.16519205E-05                    1_GWF-(1,20732)  7.40094689E-06                    1_GWF-(1,14800)
        270          6         20 -4.60786638E-05                    1_GWF-(1,26487)  3.26389270E-06                    1_GWF-(1,14799)
        271          6         21 -5.19586985E-05                    1_GWF-(1,26486)  6.34817548E-06                    1_GWF-(1,14801)
        272          6         22 -4.62862999E-05                    1_GWF-(1,26487) -1.09487876E-05                    1_GWF-(1,14801)
        273          6         23 -4.11295720E-05                    1_GWF-(1,26486)  1.23031067E-05                    1_GWF-(1,14801)
        274          6         24 -3.12865105E-05                    1_GWF-(1,26542) -1.05879573E-05                    1_GWF-(1,14801)
        275          6         25 -2.79819003E-05                     1_GWF-(1,8019)  9.19069394E-06                    1_GWF-(1,14801)
        276          6         26 -2.74739213E-05                     1_GWF-(1,8037) -7.60975988E-06                    1_GWF-(1,14801)
        277          6         27 -2.64309712E-05                     1_GWF-(1,8047)  5.99351517E-06                    1_GWF-(1,14801)
        278          6         28 -1.75341266E-05                     1_GWF-(1,8048)  3.46168465E-06                    1_GWF-(1,14800)
        279          6         29  2.71009308E-05                    1_GWF-(1,26588)  2.35450093E-06                    1_GWF-(1,14799)
        280          6         30  2.76701134E-05                    1_GWF-(1,26543)  1.63428654E-06                    1_GWF-(1,14801)
        281          6         31  3.17185483E-05                    1_GWF-(1,26588) -2.49185995E-06                    1_GWF-(1,14801)
        282          6         32  2.12632576E-05                    1_GWF-(1,26543)  2.94224815E-06                    1_GWF-(1,14801)
        283          6         33  1.69028709E-05                    1_GWF-(1,26420)  2.02905439E-06                    1_GWF-(1,14800)
        284          6         34  1.17614298E-05                    1_GWF-(1,26487)  1.91002393E-06                    1_GWF-(1,14799)
        285          6         35  1.40988866E-05                     1_GWF-(1,7950) -1.46167657E-06                    1_GWF-(1,14799)
        286          6         36  1.56769678E-05                     1_GWF-(1,7950)  1.55781041E-06                    1_GWF-(1,14799)
        287          6         37  1.56920862E-05                     1_GWF-(1,8084)  1.40232296E-06                    1_GWF-(1,14798)
        288          6         38  1.26485957E-05                     1_GWF-(1,7981)  2.17886824E-06                    1_GWF-(1,14799)
        289          6         39 -1.00440311E-05                    1_GWF-(1,26350)  1.48824682E-06                    1_GWF-(1,14798)
        290          6         40 -1.34261042E-05                    1_GWF-(1,26422)  1.93658864E-06                    1_GWF-(1,14799)
        291          6         41 -1.33523592E-05                    1_GWF-(1,26350)  1.11403233E-06                    1_GWF-(1,14798)
        292          6         42 -1.25834985E-05                    1_GWF-(1,26422)  7.77980849E-07                    1_GWF-(1,14800)
        293          6         43 -9.07461244E-06                    1_GWF-(1,26350)  8.15965251E-07                    1_GWF-(1,14801)
        294          6         44 -1.13353784E-05                    1_GWF-(1,26623)  6.75198655E-07                    1_GWF-(1,14798)
        295          6         45 -1.12130000E-05                    1_GWF-(1,26622)  8.73284576E-07                    1_GWF-(1,14799)
        296          6         46  9.04600128E-06                    1_GWF-(1,26486)  8.01286028E-07                    1_GWF-(1,14801)
        297          6         47 -9.44381817E-06                    1_GWF-(1,26486)  6.77326245E-07                    1_GWF-(1,14800)
        298          6         48  9.47065000E-06                    1_GWF-(1,11459)  7.28945784E-07                    1_GWF-(1,14801)
        299          6         49  1.01530468E-05                    1_GWF-(1,11454)  6.89131050E-07                    1_GWF-(1,14800)
        300          6         50  1.34162647E-05                    1_GWF-(1,11369)  1.69963711E-06                    1_GWF-(1,14799)
        301          7          1 -1.60421016E-05                    1_GWF-(1,11369) -9.38063235E-07                    1_GWF-(1,14799)
        302          7          2 -1.11554007E-05                    1_GWF-(1,11378)  9.91992177E-07                    1_GWF-(1,14799)
        303          7          3  7.65935824E-06                    1_GWF-(1,26544)  4.95287652E-07                    1_GWF-(1,14800)
        304          7          4  1.04459688E-05                    1_GWF-(1,26486)  4.35007978E-07                    1_GWF-(1,14801)
        305          7          5  8.82754542E-06                    1_GWF-(1,26487)  6.67302668E-07                    1_GWF-(1,14799)
        306          7          6  7.61337638E-06                    1_GWF-(1,26420)  6.58461238E-07                    1_GWF-(1,14798)
        307          7          7  7.14580909E-06                    1_GWF-(1,26422)  8.74365029E-07                    1_GWF-(1,14799)
        308          7          8  7.78097310E-06                    1_GWF-(1,26350)  5.66514446E-07                    1_GWF-(1,14800)
        309          7          9  7.95350305E-06                    1_GWF-(1,20578)  6.21797738E-07                    1_GWF-(1,14801)
        310          7         10  7.25262491E-06                    1_GWF-(1,20577)  8.01266119E-07                    1_GWF-(1,14799)
        311          7         11 -6.75720127E-06                    1_GWF-(1,26648)  7.18674348E-07                    1_GWF-(1,14798)
        312          7         12 -8.60190667E-06                    1_GWF-(1,26649)  7.73871044E-07                    1_GWF-(1,14799)
        313          7         13  9.37411404E-06                    1_GWF-(1,26649)  3.45462122E-07                    1_GWF-(1,14800)
        314          7         14  7.27479632E-06                    1_GWF-(1,26622)  4.11936107E-07                    1_GWF-(1,14798)
        315          7         15 -6.83740862E-06                     1_GWF-(1,7958)  7.33395211E-07                    1_GWF-(1,14799)
        316          7         16 -6.33293369E-06                     1_GWF-(1,7950) -8.40375232E-07                    1_GWF-(1,14799)
        317          7         17 -4.57765065E-06                     1_GWF-(1,7946)  1.04213309E-06                    1_GWF-(1,14799)
        318          7         18 -5.57222170E-06                    1_GWF-(1,26623) -7.11013116E-07                    1_GWF-(1,14799)
        319          7         19 -6.61960825E-06                    1_GWF-(1,26665)  4.90464249E-07                    1_GWF-(1,14799)
        320          7         20 -6.27481822E-06                    1_GWF-(1,26588)  4.27966982E-07                    1_GWF-(1,14799)
        321          7         21 -6.03713078E-06                    1_GWF-(1,26665)  6.48114987E-07                    1_GWF-(1,14798)
        322          7         22 -5.14686921E-06                    1_GWF-(1,26588)  1.02568319E-06                    1_GWF-(1,14799)
        323          7         23  4.42312043E-06                    1_GWF-(1,26588) -8.34664441E-07                    1_GWF-(1,14799)
        324          7         24  4.52082142E-06                     1_GWF-(1,8043)  7.64341451E-07                    1_GWF-(1,14799)
        325          7         25  5.32182280E-06                    1_GWF-(1,26588) -4.23884519E-07                    1_GWF-(1,14799)
        326          7         26  5.08683675E-06                    1_GWF-(1,26543)  2.44238479E-07                    1_GWF-(1,14801)
        327          7         27  4.87030565E-06                    1_GWF-(1,26588)  6.39945685E-07                    1_GWF-(1,14799)
        328          7         28  4.08688689E-06                    1_GWF-(1,26543) -7.92710459E-07                    1_GWF-(1,14799)
        329          7         29  3.12212557E-06                    1_GWF-(1,22568)  7.78802599E-07                    1_GWF-(1,14799)
        330          7         30 -3.83320915E-06                     1_GWF-(1,8046) -8.35177131E-07                    1_GWF-(1,14799)
        331          7         31 -2.94373843E-06                     1_GWF-(1,8444)  7.51556719E-07                    1_GWF-(1,14799)
        332          7         32 -2.73769795E-06                     1_GWF-(1,8215) -5.83082678E-07                    1_GWF-(1,14801)
        333          7         33 -2.32450824E-06                     1_GWF-(1,8215)  7.35850314E-07                    1_GWF-(1,14801)
        334          7         34  1.82835435E-06                    1_GWF-(1,26623) -7.18194798E-07                    1_GWF-(1,14801)
        335          7         35  2.71750043E-06                    1_GWF-(1,26622)  5.75794878E-07                    1_GWF-(1,14801)
        336          7         36 -2.96857393E-06                    1_GWF-(1,26622)  2.51789697E-07                    1_GWF-(1,14799)
        337          7         37 -2.32758431E-06                    1_GWF-(1,26649) -3.68346321E-07                    1_GWF-(1,14801)
        338          7         38  1.67672747E-06                     1_GWF-(1,8090)  6.41131861E-07                    1_GWF-(1,14801)
        339          7         39  2.10950152E-06                     1_GWF-(1,7981) -7.31464262E-07                    1_GWF-(1,14801)
        340          7         40  1.88183222E-06                     1_GWF-(1,8009)  8.19734839E-07                    1_GWF-(1,14801)
        341          7         41  1.38309151E-06                     1_GWF-(1,8016) -7.72498569E-07                    1_GWF-(1,14801)
        342          7         42 -1.29872731E-06                    1_GWF-(1,22703)  5.90948140E-07                    1_GWF-(1,14801)
        343          7         43 -1.43988110E-06                    1_GWF-(1,25552) -3.46119631E-07                    1_GWF-(1,14801)
        344          7         44  1.94413598E-06                    1_GWF-(1,26487) -1.35094664E-07                    1_GWF-(1,14799)
        345          7         45  2.19649531E-06                    1_GWF-(1,26486) -2.11891025E-07                    1_GWF-(1,14800)
        346          7         46  1.84863632E-06                    1_GWF-(1,26487) -3.46359467E-07                    1_GWF-(1,14801)
        347          7         47  1.14637670E-06                    1_GWF-(1,26649)  2.77459172E-07                    1_GWF-(1,14801)
        348          7         48 -1.12390955E-06                    1_GWF-(1,25803) -2.12666089E-07                    1_GWF-(1,14801)
        349          7         49 -9.09201318E-07                    1_GWF-(1,20571) -2.11595751E-07                    1_GWF-(1,14799)
        350          8          1 -3.77601210E-07                    1_GWF-(1,26649)  1.87653383E-07                    1_GWF-(1,14799)
 --------------------------------------------------------------------------------------------------------------------------------------



 MEMORY MANAGER TOTAL STORAGE BY DATA TYPE, IN MEGABYTES
 -------------------------------
                    ALLOCATED   
 DATA TYPE           MEMORY     
 -------------------------------
 Character        4.66090000E-02
 Logical          4.40000000E-05
 Integer          5.2037920     
 Real             11.901376     
 -------------------------------
 Total            17.151821     
 -------------------------------


 
 Run end date and time (yyyy/mm/dd hh:mm:ss): 2022/04/29 15:36:52
 Elapsed run time:  0.502 Seconds
 Normal termination of simulation.
