                                   MODFLOW 6
                U.S. GEOLOGICAL SURVEY MODULAR HYDROLOGIC MODEL
                            VERSION 6.2.2 07/30/2021

   MODFLOW 6 compiled Jul 31 2021 14:22:53 with IFORT compiler (ver. 19.10.3)

This software has been approved for release by the U.S. Geological 
Survey (USGS). Although the software has been subjected to rigorous 
review, the USGS reserves the right to update the software as needed 
pursuant to further analysis and review. No warranty, expressed or 
implied, is made by the USGS or the U.S. Government as to the 
functionality of the software and related material nor shall the 
fact of release constitute any such warranty. Furthermore, the 
software is released on condition that neither the USGS nor the U.S. 
Government shall be held liable for any damages resulting from its 
authorized or unauthorized use. Also refer to the USGS Water 
Resources Software User Rights Notice for complete use, copyright, 
and distribution information.


System command used to initiate simulation:
mf6

MODFLOW was compiled using uniform precision.

Real Variables
  KIND: 8
  TINY (smallest non-zero value):    2.225074-308
  HUGE (largest value):    1.797693+308
  PRECISION: 15
  BIT SIZE: 64

Integer Variables
  KIND: 4
  HUGE (largest value): 2147483647
  BIT SIZE: 32

Long Integer Variables
  KIND: 8
  HUGE (largest value): 9223372036854775807
  BIT SIZE: 64

Logical Variables
  KIND: 4
  BIT SIZE: 32
 

 OPENED mfsim.nam
 FILE TYPE:NAM   UNIT 1001   STATUS:OLD                 
 FORMAT:FORMATTED              ACCESS:SEQUENTIAL          
 ACTION:READ                

 # File generated by Flopy version 3.3.5 on 04/25/2022 at 00:15:53.

 READING SIMULATION OPTIONS
 END OF SIMULATION OPTIONS

 READING SIMULATION TIMING

 OPENED mfsim.tdis
 FILE TYPE:TDIS   UNIT 1002   STATUS:OLD                 
 FORMAT:FORMATTED              ACCESS:SEQUENTIAL          
 ACTION:READ                


 TDIS -- TEMPORAL DISCRETIZATION PACKAGE,
 VERSION 1 : 11/13/2014 - INPUT READ FROM UNIT 1002
 # File generated by Flopy version 3.3.5 on 04/25/2022 at 00:15:53.
 PROCESSING TDIS OPTIONS
    SIMULATION TIME UNIT IS SECONDS
 END OF TDIS OPTIONS
 PROCESSING TDIS DIMENSIONS
    1 STRESS PERIOD(S) IN SIMULATION
 END OF TDIS DIMENSIONS
 PROCESSING TDIS PERIODDATA


 STRESS PERIOD     LENGTH       TIME STEPS     MULTIPLIER FOR DELT
 ----------------------------------------------------------------------------
        1         7.000000          1                    1.000
 END OF TDIS PERIODDATA
 END OF SIMULATION TIMING

 READING SIMULATION MODELS
    GWF6 model ML will be created as model 1
 END OF SIMULATION MODELS

 READING SIMULATION EXCHANGES
 END OF SIMULATION EXCHANGES

 READING SOLUTIONGROUP

 Creating solution: SLN_1           

 OPENED mfsim.ims
 FILE TYPE:IMS   UNIT 1015   STATUS:OLD                 
 FORMAT:FORMATTED              ACCESS:SEQUENTIAL          
 ACTION:READ                

 END OF SIMULATION SOLUTIONGROUP

 IMS -- ITERATIVE MODEL SOLUTION PACKAGE, VERSION 6, 4/28/2017
         INPUT READ FROM UNIT 1015
 # File generated by Flopy version 3.3.5 on 04/25/2022 at 00:15:53.

 PROCESSING IMS OPTIONS
 END OF IMS OPTIONS

 PROCESSING IMS NONLINEAR
 END OF IMS NONLINEAR DATA
 ***UNDER-RELAXATION WILL NOT BE USED***
 
 ***IMS LINEAR SOLVER WILL BE USED***

 IMSLINEAR -- UNSTRUCTURED LINEAR SOLUTION PACKAGE, VERSION 8, 04/28/2017

 PROCESSING LINEAR DATA
 END OF LINEAR DATA
 
 OUTER ITERATION CONVERGENCE CRITERION    (DVCLOSE) =    0.100000E-04
 MAXIMUM NUMBER OF OUTER ITERATIONS        (MXITER) = 100
 SOLVER PRINTOUT INDEX                     (IPRIMS) = 2
 NONLINEAR ITERATION METHOD            (NONLINMETH) = 0
 LINEAR SOLUTION METHOD                   (LINMETH) = 1

       SOLUTION BY THE        CONJUGATE-GRADIENT       METHOD
 ------------------------------------------------------------------
 MAXIMUM OF 100 CALLS OF SOLUTION ROUTINE
 MAXIMUM OF 50 INTERNAL ITERATIONS PER CALL TO SOLUTION ROUTINE
 LINEAR ACCELERATION METHOD            = CG        
 MATRIX PRECONDITIONING TYPE           = INCOMPLETE LU       
 MATRIX SCALING APPROACH               = NO SCALING          
 MATRIX REORDERING APPROACH            = ORIGINAL ORDERING        
 NUMBER OF ORTHOGONALIZATIONS          = 0
 HEAD CHANGE CRITERION FOR CLOSURE     =    0.10000E-05
 RESIDUAL CHANGE CRITERION FOR CLOSURE =    0.10000E-04
 RESIDUAL CONVERGENCE OPTION           = 1
 RESIDUAL CONVERGENCE NORM             = INFINITY NORM S 
 RELAXATION FACTOR                     =    0.00000E+00



 
    Solving:  Stress period:     1    Time step:     1
 
1
                            STRESS PERIOD NO. 1, LENGTH =   7.000000    
                            -----------------------------------------------
                            NUMBER OF TIME STEPS = 1
                            MULTIPLIER FOR DELT =     1.000
                            INITIAL TIME STEP SIZE =   7.000000    

 SLN_1 OUTER ITERATION SUMMARY
 ----------------------------------------------------------------------------------------------------------
                                OUTER      INNER                    STEP   MAXIMUM CHANGE MODEL-(CELLID) OR
 OUTER ITERATION STEP       ITERATION  ITERATION  MAXIMUM CHANGE SUCCESS             MODEL-PACKAGE-(NUMBER)
 ----------------------------------------------------------------------------------------------------------
 Model                              1         50       610.61357                            1_GWF-(1,26381)
 Model                              2         50      -607.92004                            1_GWF-(1,26381)
 Model                              3         50      -2.4696169                            1_GWF-(1,23178)
 Model                              4         50     -0.56681576                            1_GWF-(1,22353)
 Model                              5         50 -6.16304419E-02                            1_GWF-(1,11378)
 Model                              6         50 -9.32739670E-03                            1_GWF-(1,22354)
 Model                              7         50  1.16152919E-03                            1_GWF-(1,21836)
 Model                              8         50 -4.47811150E-04                            1_GWF-(1,22362)
 Model                              9         50  4.14510133E-05                            1_GWF-(1,24253)
 Model                             10         28 -1.72887593E-05                            1_GWF-(1,22377)
 Model                             11          1 -6.90739343E-07       *                    1_GWF-(1,26486)
 ----------------------------------------------------------------------------------------------------------


 11 CALLS TO NUMERICAL SOLUTION IN TIME STEP 1 STRESS PERIOD 1
 479 TOTAL ITERATIONS

 SLN_1 INNER ITERATION SUMMARY
 --------------------------------------------------------------------------------------------------------------------------------------
      TOTAL      OUTER      INNER                                                            MAXIMUM                                   
  ITERATION  ITERATION  ITERATION  MAXIMUM CHANGE      MAXIMUM CHANGE MODEL-(CELLID)        RESIDUAL    MAXIMUM RESIDUAL MODEL-(CELLID)
 --------------------------------------------------------------------------------------------------------------------------------------
          1          1          1       183.02354                    1_GWF-(1,26381)       1.9456778                     1_GWF-(1,7788)
          2          1          2       273.13780                    1_GWF-(1,26380)      -1.1320035                    1_GWF-(1,15907)
          3          1          3       157.73930                    1_GWF-(1,26444)      0.85996567                    1_GWF-(1,15907)
          4          1          4       83.461093                    1_GWF-(1,26380)      0.57297703                    1_GWF-(1,15226)
          5          1          5       66.873802                    1_GWF-(1,26520)     -0.37988645                    1_GWF-(1,15221)
          6          1          6       60.596104                    1_GWF-(1,26572)      0.46072070                    1_GWF-(1,15216)
          7          1          7       62.593843                    1_GWF-(1,26648)      0.40552359                    1_GWF-(1,15226)
          8          1          8       53.740631                    1_GWF-(1,26649)     -0.36513856                    1_GWF-(1,15226)
          9          1          9       39.191433                    1_GWF-(1,26589)      0.33239513                    1_GWF-(1,15221)
         10          1         10       32.742904                    1_GWF-(1,26543)     -0.17145198                    1_GWF-(1,15216)
         11          1         11       24.905437                    1_GWF-(1,26544)     -0.15708450                    1_GWF-(1,15226)
         12          1         12       21.049115                    1_GWF-(1,26420)      0.19898126                    1_GWF-(1,15221)
         13          1         13       18.533032                    1_GWF-(1,26422) -6.98594973E-02                    1_GWF-(1,15216)
         14          1         14       13.395747                    1_GWF-(1,26350) -9.26298461E-02                    1_GWF-(1,15221)
         15          1         15       8.6252270                    1_GWF-(1,26218)      0.10008433                    1_GWF-(1,15221)
         16          1         16      -8.2831609                    1_GWF-(1,26622)  4.54326430E-02                    1_GWF-(1,11047)
         17          1         17      -6.5759149                    1_GWF-(1,26623)     -0.11871401                    1_GWF-(1,15221)
         18          1         18      -6.2151348                    1_GWF-(1,26543)      0.12222790                    1_GWF-(1,15221)
         19          1         19      -6.8977145                    1_GWF-(1,26588)  6.15287622E-02                    1_GWF-(1,11152)
         20          1         20       10.424780                    1_GWF-(1,26588)     -0.10824533                    1_GWF-(1,15221)
         21          1         21      -8.4113116                    1_GWF-(1,26588)  6.75375370E-02                    1_GWF-(1,15221)
         22          1         22      -8.7413406                    1_GWF-(1,26543)  7.47583866E-02                    1_GWF-(1,15910)
         23          1         23      -7.7073851                    1_GWF-(1,26544)     -0.11416007                    1_GWF-(1,15221)
         24          1         24      -11.107101                    1_GWF-(1,26486)  5.14623209E-02                    1_GWF-(1,15221)
         25          1         25      -10.325809                    1_GWF-(1,26487)  8.70947366E-02                    1_GWF-(1,15910)
         26          1         26       10.918887                    1_GWF-(1,26487) -9.03083906E-02                    1_GWF-(1,15221)
         27          1         27       10.606308                    1_GWF-(1,26420) -5.25680854E-02                    1_GWF-(1,11203)
         28          1         28       6.3545299                    1_GWF-(1,26487)  6.36330501E-02                    1_GWF-(1,15910)
         29          1         29       4.5325351                    1_GWF-(1,26542) -5.84973521E-02                    1_GWF-(1,15221)
         30          1         30       5.1687234                    1_GWF-(1,26623) -3.40897961E-02                    1_GWF-(1,11050)
         31          1         31       3.8678200                    1_GWF-(1,26586)  4.61272623E-02                    1_GWF-(1,15910)
         32          1         32       3.9033111                    1_GWF-(1,26422) -5.11316693E-02                    1_GWF-(1,11203)
         33          1         33       4.3738136                    1_GWF-(1,26544) -4.38808855E-02                    1_GWF-(1,11200)
         34          1         34       3.9535865                    1_GWF-(1,26665)  2.86722425E-02                    1_GWF-(1,15910)
         35          1         35       3.5026405                    1_GWF-(1,26350) -2.89833075E-02                    1_GWF-(1,15221)
         36          1         36       3.7973506                    1_GWF-(1,26422) -2.45866777E-02                    1_GWF-(1,11200)
         37          1         37      -2.7570617                    1_GWF-(1,26422) -2.39829230E-02                    1_GWF-(1,11152)
         38          1         38      -3.5033421                    1_GWF-(1,26350) -2.82411786E-02                    1_GWF-(1,15216)
         39          1         39      -2.3815530                    1_GWF-(1,26622) -3.55283580E-02                    1_GWF-(1,11206)
         40          1         40      -2.4431877                    1_GWF-(1,26648)  2.76260702E-02                    1_GWF-(1,11108)
         41          1         41      -1.8823848                    1_GWF-(1,26649)  2.93690746E-02                    1_GWF-(1,11159)
         42          1         42      -1.7252167                    1_GWF-(1,26623)  3.61794816E-02                    1_GWF-(1,11197)
         43          1         43      -1.6335780                    1_GWF-(1,26586) -3.21465864E-02                    1_GWF-(1,11206)
         44          1         44      -1.2412535                    1_GWF-(1,26543)  3.96803792E-02                    1_GWF-(1,11206)
         45          1         45      -1.2236646                    1_GWF-(1,26486)  2.40406415E-02                    1_GWF-(1,11201)
         46          1         46       1.0248825                    1_GWF-(1,26649) -2.12576921E-02                    1_GWF-(1,11201)
         47          1         47       1.1848594                    1_GWF-(1,26648) -2.18723884E-02                    1_GWF-(1,12427)
         48          1         48      -1.5736023                    1_GWF-(1,26218)  2.48637836E-02                    1_GWF-(1,11197)
         49          1         49      -1.6047365                    1_GWF-(1,26217) -1.72025540E-02                    1_GWF-(1,11206)
         50          1         50       1.1526978                    1_GWF-(1,26217)  1.34293946E-02                    1_GWF-(1,11206)
         51          2          1      -609.79082                    1_GWF-(1,26381)      -3.3997045                    1_GWF-(1,26381)
         52          2          2      -220.02375                    1_GWF-(1,26513)       1.1521303                    1_GWF-(1,26381)
         53          2          3      -104.65685                    1_GWF-(1,26440)      0.72263737                    1_GWF-(1,26506)
         54          2          4      -62.931847                    1_GWF-(1,26665)     -0.29521211                    1_GWF-(1,26506)
         55          2          5      -52.741662                    1_GWF-(1,26649)      0.28525294                    1_GWF-(1,26381)
         56          2          6      -45.654425                    1_GWF-(1,26589)     -0.30906667                    1_GWF-(1,26381)
         57          2          7      -41.575143                    1_GWF-(1,26588)     -0.25962806                    1_GWF-(1,26506)
         58          2          8      -32.175661                    1_GWF-(1,26544)      0.13361171                    1_GWF-(1,26506)
         59          2          9      -25.673783                    1_GWF-(1,26487)     -0.11630506                    1_GWF-(1,26381)
         60          2         10      -19.090357                    1_GWF-(1,26421)     -0.12245589                    1_GWF-(1,26506)
         61          2         11      -17.117263                    1_GWF-(1,26348)  5.25705343E-02                    1_GWF-(1,26665)
         62          2         12      -13.077835                    1_GWF-(1,26218) -7.81700166E-02                    1_GWF-(1,26381)
         63          2         13      -7.9566245                    1_GWF-(1,26218) -7.32823025E-02                    1_GWF-(1,26506)
         64          2         14      -6.6406939                    1_GWF-(1,26649)  2.97175099E-02                    1_GWF-(1,26551)
         65          2         15      -8.1131965                    1_GWF-(1,26622) -6.70637336E-02                    1_GWF-(1,26381)
         66          2         16      -8.4542284                    1_GWF-(1,26623) -7.82810605E-02                    1_GWF-(1,26506)
         67          2         17      -7.0828478                    1_GWF-(1,26622)  4.21800655E-02                    1_GWF-(1,26551)
         68          2         18       7.0671535                    1_GWF-(1,26422) -7.94558544E-02                    1_GWF-(1,26381)
         69          2         19       7.0730781                    1_GWF-(1,26588) -7.34573923E-02                    1_GWF-(1,26506)
         70          2         20       9.0323808                    1_GWF-(1,26543) -3.93197047E-02                    1_GWF-(1,26447)
         71          2         21       10.395423                    1_GWF-(1,26588) -9.06992369E-02                    1_GWF-(1,26381)
         72          2         22       10.311543                    1_GWF-(1,26543) -6.94233056E-02                    1_GWF-(1,26506)
         73          2         23       7.3803616                    1_GWF-(1,26542) -5.50496540E-02                    1_GWF-(1,26447)
         74          2         24      -7.9122344                    1_GWF-(1,26487) -9.87746176E-02                    1_GWF-(1,26381)
         75          2         25      -10.291300                    1_GWF-(1,26486) -5.40826093E-02                    1_GWF-(1,26506)
         76          2         26      -11.290868                    1_GWF-(1,26487)  8.01792065E-02                    1_GWF-(1,26381)
         77          2         27      -7.8386593                    1_GWF-(1,26486)      0.10255668                    1_GWF-(1,26506)
         78          2         28      -4.5920531                    1_GWF-(1,26477) -5.02305435E-02                    1_GWF-(1,26506)
         79          2         29      -3.0241205                    1_GWF-(1,26649)  3.78955637E-02                    1_GWF-(1,26381)
         80          2         30       3.1942424                    1_GWF-(1,26420)  6.27429663E-02                    1_GWF-(1,26506)
         81          2         31      -2.7739102                    1_GWF-(1,26663) -4.55096330E-02                    1_GWF-(1,26506)
         82          2         32      -2.9678302                    1_GWF-(1,26421) -2.25329013E-02                    1_GWF-(1,26378)
         83          2         33      -3.7863132                    1_GWF-(1,26350) -4.92818223E-02                    1_GWF-(1,26381)
         84          2         34      -2.8027779                    1_GWF-(1,26422) -5.12405766E-02                    1_GWF-(1,26506)
         85          2         35       3.7900358                    1_GWF-(1,26422) -2.46933783E-02                    1_GWF-(1,26378)
         86          2         36       3.2667343                    1_GWF-(1,26350) -3.49216644E-02                    1_GWF-(1,26381)
         87          2         37      -3.0749527                    1_GWF-(1,26350) -4.56727879E-02                    1_GWF-(1,26506)
         88          2         38       2.8366216                    1_GWF-(1,26350) -2.00953545E-02                    1_GWF-(1,26378)
         89          2         39       3.2993139                    1_GWF-(1,26422) -3.02546988E-02                    1_GWF-(1,26381)
         90          2         40       2.1857206                    1_GWF-(1,26350) -4.32312014E-02                    1_GWF-(1,26506)
         91          2         41       1.3634221                    1_GWF-(1,26217)  2.68026698E-02                    1_GWF-(1,26506)
         92          2         42      0.96682925                    1_GWF-(1,26218)  1.54053944E-02                    1_GWF-(1,26378)
         93          2         43       1.0498997                    1_GWF-(1,26663)  2.71429181E-02                    1_GWF-(1,26381)
         94          2         44     -0.90887702                    1_GWF-(1,26217)  2.79554143E-02                    1_GWF-(1,26506)
         95          2         45     -0.75523484                    1_GWF-(1,26192)  1.89881425E-02                     1_GWF-(1,9692)
         96          2         46     -0.64249936                    1_GWF-(1,26242)  3.07539074E-02                     1_GWF-(1,9691)
         97          2         47     -0.76883178                    1_GWF-(1,26218)  3.10971508E-02                     1_GWF-(1,9692)
         98          2         48      -1.0773450                    1_GWF-(1,26217)  5.56771469E-02                     1_GWF-(1,9691)
         99          2         49      0.73804859                    1_GWF-(1,25377) -6.65147805E-02                     1_GWF-(1,9691)
        100          2         50     -0.70332235                    1_GWF-(1,23037)  9.72439296E-02                     1_GWF-(1,9691)
        101          3          1      0.40224903                    1_GWF-(1,26674) -4.94871879E-02                     1_GWF-(1,9691)
        102          3          2      0.52833361                    1_GWF-(1,22782)      0.10834755                     1_GWF-(1,9691)
        103          3          3      0.67786302                    1_GWF-(1,26217) -9.54643623E-02                     1_GWF-(1,9691)
        104          3          4      0.70623319                    1_GWF-(1,26218)  9.41271905E-02                     1_GWF-(1,9691)
        105          3          5      0.41527510                    1_GWF-(1,26422) -9.32112467E-02                     1_GWF-(1,9691)
        106          3          6     -0.37245212                    1_GWF-(1,26217)      0.11470322                     1_GWF-(1,9691)
        107          3          7      0.40889261                    1_GWF-(1,26194) -9.42455609E-02                     1_GWF-(1,9691)
        108          3          8      0.29629972                    1_GWF-(1,26407)  9.29785176E-02                     1_GWF-(1,9691)
        109          3          9      0.41935788                    1_GWF-(1,13206) -8.22302226E-02                     1_GWF-(1,9691)
        110          3         10      0.41737197                    1_GWF-(1,13192)  8.76271722E-02                     1_GWF-(1,9691)
        111          3         11     -0.41447892                    1_GWF-(1,26543) -6.88355194E-02                     1_GWF-(1,9691)
        112          3         12      0.53186253                    1_GWF-(1,26648)  6.69378626E-02                     1_GWF-(1,9691)
        113          3         13     -0.39975800                    1_GWF-(1,26623) -5.32855698E-02                     1_GWF-(1,9691)
        114          3         14     -0.40767683                    1_GWF-(1,26649)  5.12537984E-02                     1_GWF-(1,9691)
        115          3         15     -0.59981315                    1_GWF-(1,26648)  3.48870320E-02                     1_GWF-(1,9692)
        116          3         16     -0.52233137                    1_GWF-(1,26665)  3.53152533E-02                     1_GWF-(1,9691)
        117          3         17     -0.41950206                    1_GWF-(1,26674)  2.03915900E-02                     1_GWF-(1,9692)
        118          3         18      0.28340343                    1_GWF-(1,26647)  1.68445720E-02                     1_GWF-(1,9691)
        119          3         19      0.41304056                    1_GWF-(1,26665)  9.22105157E-03                     1_GWF-(1,9692)
        120          3         20      0.40441463                    1_GWF-(1,26674)  7.75545398E-03                     1_GWF-(1,9691)
        121          3         21      0.19886186                    1_GWF-(1,26422) -7.67196770E-03                    1_GWF-(1,16201)
        122          3         22      0.37331029                    1_GWF-(1,26350)  6.05410069E-03                    1_GWF-(1,10961)
        123          3         23      0.38838642                    1_GWF-(1,26422)  9.57088889E-03                     1_GWF-(1,9691)
        124          3         24      0.52541530                    1_GWF-(1,26420)  9.20462184E-03                     1_GWF-(1,9692)
        125          3         25      0.47970158                    1_GWF-(1,26422)  1.08094907E-02                     1_GWF-(1,9691)
        126          3         26      0.51446007                    1_GWF-(1,26420)  6.53075955E-03                     1_GWF-(1,9692)
        127          3         27      0.42923716                    1_GWF-(1,26487) -5.50796899E-03                    1_GWF-(1,16201)
        128          3         28     -0.41036982                    1_GWF-(1,26487)  7.84083247E-03                     1_GWF-(1,9691)
        129          3         29     -0.55935621                    1_GWF-(1,26486)  7.28101068E-03                     1_GWF-(1,9692)
        130          3         30     -0.41209558                    1_GWF-(1,26487)  7.52613226E-03                     1_GWF-(1,9691)
        131          3         31     -0.38842556                    1_GWF-(1,26486)  4.12670401E-03                    1_GWF-(1,11145)
        132          3         32     -0.34044987                    1_GWF-(1,26588)  3.75169874E-03                    1_GWF-(1,11148)
        133          3         33     -0.37730172                    1_GWF-(1,26543)  5.20511095E-03                     1_GWF-(1,9691)
        134          3         34     -0.45771722                    1_GWF-(1,26588)  5.56562880E-03                     1_GWF-(1,9692)
        135          3         35      0.35275975                    1_GWF-(1,26588)  5.83988579E-03                     1_GWF-(1,9691)
        136          3         36      0.26346887                    1_GWF-(1,26665)  4.80518387E-03                    1_GWF-(1,11147)
        137          3         37      0.36273858                    1_GWF-(1,26649)  4.91711105E-03                    1_GWF-(1,11048)
        138          3         38      0.45433394                    1_GWF-(1,26622)  4.27567850E-03                    1_GWF-(1,16201)
        139          3         39     -0.38531132                    1_GWF-(1,26622)  3.92286922E-03                    1_GWF-(1,11133)
        140          3         40     -0.30656815                    1_GWF-(1,26623) -4.05262803E-03                    1_GWF-(1,11149)
        141          3         41     -0.24195229                    1_GWF-(1,26622)  4.15751770E-03                    1_GWF-(1,16201)
        142          3         42     -0.34323719                    1_GWF-(1,26665)  3.45562491E-03                    1_GWF-(1,11152)
        143          3         43     -0.31535552                    1_GWF-(1,26666)  3.70791573E-03                    1_GWF-(1,11135)
        144          3         44     -0.29197388                    1_GWF-(1,26665)  3.57858482E-03                    1_GWF-(1,16201)
        145          3         45      0.29920234                    1_GWF-(1,26665)  4.34153230E-03                    1_GWF-(1,11053)
        146          3         46      0.24207979                    1_GWF-(1,26666) -2.96182461E-03                    1_GWF-(1,11059)
        147          3         47     -0.17363447                    1_GWF-(1,26543) -3.14391183E-03                    1_GWF-(1,11054)
        148          3         48     -0.16893054                    1_GWF-(1,26542)  2.89926103E-03                    1_GWF-(1,10966)
        149          3         49     -0.20069183                    1_GWF-(1,26623)  3.09373235E-03                    1_GWF-(1,11156)
        150          3         50     -0.16940523                    1_GWF-(1,26586)  2.29035126E-03                    1_GWF-(1,11155)
        151          4          1     -0.29802037                    1_GWF-(1,11428) -8.03382942E-03                    1_GWF-(1,10745)
        152          4          2     -0.24835120                    1_GWF-(1,11421) -5.86939507E-03                    1_GWF-(1,15063)
        153          4          3     -0.19515167                    1_GWF-(1,11401)  3.39686580E-03                    1_GWF-(1,15063)
        154          4          4     -0.17423417                    1_GWF-(1,11393)  2.58729163E-03                    1_GWF-(1,15062)
        155          4          5     -0.14466019                    1_GWF-(1,11403)  2.61179869E-03                    1_GWF-(1,15067)
        156          4          6 -9.54264319E-02                    1_GWF-(1,11318)  2.73616039E-03                    1_GWF-(1,15063)
        157          4          7      0.11274546                    1_GWF-(1,11403)  2.74405728E-03                    1_GWF-(1,10651)
        158          4          8     -0.10843911                    1_GWF-(1,26665) -2.57798827E-03                    1_GWF-(1,15062)
        159          4          9      0.11479909                    1_GWF-(1,26665) -2.66933067E-03                    1_GWF-(1,15067)
        160          4         10     -0.13940166                    1_GWF-(1,26665) -2.17489909E-03                    1_GWF-(1,15058)
        161          4         11      0.12088847                    1_GWF-(1,26665) -2.01898025E-03                    1_GWF-(1,15062)
        162          4         12 -6.92385405E-02                    1_GWF-(1,11369) -2.29804277E-03                    1_GWF-(1,15067)
        163          4         13 -8.15225853E-02                    1_GWF-(1,26622) -1.76099709E-03                    1_GWF-(1,15058)
        164          4         14  8.21100628E-02                    1_GWF-(1,26622) -8.53557581E-04                    1_GWF-(1,15070)
        165          4         15  6.23900357E-02                    1_GWF-(1,26649)  1.03156524E-03                    1_GWF-(1,15058)
        166          4         16  5.16549382E-02                    1_GWF-(1,26622) -1.24442480E-03                    1_GWF-(1,15058)
        167          4         17 -4.22298814E-02                    1_GWF-(1,26218) -1.21776751E-03                    1_GWF-(1,15079)
        168          4         18 -5.34761238E-02                    1_GWF-(1,26588)  1.30794237E-03                    1_GWF-(1,15069)
        169          4         19  6.31762225E-02                    1_GWF-(1,26588) -1.23771543E-03                    1_GWF-(1,15058)
        170          4         20 -7.89586513E-02                    1_GWF-(1,26588)  1.02769075E-03                    1_GWF-(1,10961)
        171          4         21 -5.96872667E-02                    1_GWF-(1,26543)  9.40421515E-04                    1_GWF-(1,15069)
        172          4         22 -3.95683162E-02                    1_GWF-(1,26588) -1.02962720E-03                    1_GWF-(1,10961)
        173          4         23 -4.32961647E-02                    1_GWF-(1,26486) -1.12557629E-03                    1_GWF-(1,15079)
        174          4         24  5.10890124E-02                    1_GWF-(1,26486) -1.06843177E-03                    1_GWF-(1,15078)
        175          4         25 -6.06879835E-02                    1_GWF-(1,26486)  7.58613441E-04                    1_GWF-(1,10959)
        176          4         26 -5.63753430E-02                    1_GWF-(1,26487) -1.15567214E-03                    1_GWF-(1,15079)
        177          4         27 -5.35950192E-02                    1_GWF-(1,26420) -1.44281870E-03                    1_GWF-(1,15078)
        178          4         28 -5.75959359E-02                    1_GWF-(1,26422)  1.37059891E-03                    1_GWF-(1,15078)
        179          4         29 -5.78145295E-02                    1_GWF-(1,26350)  1.09348959E-03                    1_GWF-(1,15083)
        180          4         30 -4.90316257E-02                    1_GWF-(1,26422)  8.62624148E-04                     1_GWF-(1,5697)
        181          4         31  5.64468217E-02                    1_GWF-(1,26422)  1.09734629E-03                    1_GWF-(1,15078)
        182          4         32  4.72753554E-02                    1_GWF-(1,26350)  1.08030640E-03                    1_GWF-(1,15083)
        183          4         33  3.86820314E-02                    1_GWF-(1,26421) -8.73810453E-04                    1_GWF-(1,15083)
        184          4         34  2.98509856E-02                    1_GWF-(1,26350) -7.85884758E-04                    1_GWF-(1,11145)
        185          4         35 -2.65680799E-02                    1_GWF-(1,11459) -7.00246504E-04                    1_GWF-(1,11148)
        186          4         36 -2.52031432E-02                    1_GWF-(1,11365)  1.03820990E-03                     1_GWF-(1,9691)
        187          4         37 -1.67268340E-02                    1_GWF-(1,11366)  1.09840440E-03                     1_GWF-(1,9692)
        188          4         38  2.94735697E-02                    1_GWF-(1,11454)  1.65134219E-03                     1_GWF-(1,9691)
        189          4         39 -1.79473643E-02                    1_GWF-(1,26217)  1.72122174E-03                     1_GWF-(1,9692)
        190          4         40 -1.90305116E-02                    1_GWF-(1,11380)  2.67081920E-03                     1_GWF-(1,9691)
        191          4         41 -1.39186860E-02                    1_GWF-(1,13539) -2.57781336E-03                     1_GWF-(1,9691)
        192          4         42  1.22274519E-02                    1_GWF-(1,11369)  3.43203133E-03                     1_GWF-(1,9691)
        193          4         43 -1.36963289E-02                    1_GWF-(1,11369) -3.23880550E-03                     1_GWF-(1,9691)
        194          4         44  1.19287133E-02                    1_GWF-(1,11453)  3.52227939E-03                     1_GWF-(1,9691)
        195          4         45  1.08467834E-02                    1_GWF-(1,26218) -3.23149794E-03                     1_GWF-(1,9691)
        196          4         46 -7.30300932E-03                    1_GWF-(1,14224)  3.48126367E-03                     1_GWF-(1,9691)
        197          4         47  7.67718866E-03                    1_GWF-(1,11701) -2.82009619E-03                     1_GWF-(1,9691)
        198          4         48  7.20831656E-03                    1_GWF-(1,11454)  3.07629969E-03                     1_GWF-(1,9691)
        199          4         49  7.59536042E-03                    1_GWF-(1,11381) -2.38835729E-03                     1_GWF-(1,9691)
        200          4         50 -9.28569167E-03                    1_GWF-(1,26217)  2.49216468E-03                     1_GWF-(1,9691)
        201          5          1 -5.14880948E-02                    1_GWF-(1,11378)  9.28679196E-04                     1_GWF-(1,9692)
        202          5          2 -3.34605452E-02                    1_GWF-(1,11369)  2.75931019E-03                     1_GWF-(1,9691)
        203          5          3 -1.94108835E-02                    1_GWF-(1,11454) -2.94342647E-03                     1_GWF-(1,9691)
        204          5          4  2.00933381E-02                    1_GWF-(1,11378)  2.66631618E-03                     1_GWF-(1,9691)
        205          5          5 -2.15873857E-02                    1_GWF-(1,11373) -2.43711287E-03                     1_GWF-(1,9691)
        206          5          6  1.82739529E-02                    1_GWF-(1,11373)  2.82089707E-03                     1_GWF-(1,9691)
        207          5          7  2.62504138E-02                    1_GWF-(1,11378) -2.17590225E-03                     1_GWF-(1,9691)
        208          5          8  1.91868829E-02                    1_GWF-(1,11368)  2.06893356E-03                     1_GWF-(1,9691)
        209          5          9 -1.52923867E-02                    1_GWF-(1,11368) -1.83784324E-03                     1_GWF-(1,9691)
        210          5         10 -1.65955627E-02                    1_GWF-(1,11451)  1.76441376E-03                     1_GWF-(1,9691)
        211          5         11 -2.26945803E-02                    1_GWF-(1,11378) -1.09021656E-03                     1_GWF-(1,9691)
        212          5         12 -1.88648731E-02                    1_GWF-(1,11368)  1.03609863E-03                     1_GWF-(1,9691)
        213          5         13 -1.60740462E-02                    1_GWF-(1,11451)  6.62746551E-04                     1_GWF-(1,9692)
        214          5         14  1.43966511E-02                    1_GWF-(1,11451)  6.38651013E-04                     1_GWF-(1,9691)
        215          5         15  1.47847697E-02                    1_GWF-(1,11452)  3.79251847E-04                     1_GWF-(1,9692)
        216          5         16  1.21912168E-02                    1_GWF-(1,11368)  2.94022040E-04                     1_GWF-(1,9691)
        217          5         17 -9.30113008E-03                    1_GWF-(1,26487)  1.60943165E-04                    1_GWF-(1,10651)
        218          5         18 -1.22593400E-02                    1_GWF-(1,26486)  1.65251604E-04                    1_GWF-(1,11352)
        219          5         19 -1.04105553E-02                    1_GWF-(1,26588)  3.16568060E-04                     1_GWF-(1,9691)
        220          5         20 -8.38906316E-03                    1_GWF-(1,11415) -2.43530817E-04                    1_GWF-(1,10652)
        221          5         21 -8.53093593E-03                    1_GWF-(1,11454) -2.30434421E-04                    1_GWF-(1,10651)
        222          5         22 -9.07716223E-03                    1_GWF-(1,11452)  1.28256989E-04                    1_GWF-(1,15078)
        223          5         23 -8.14352193E-03                    1_GWF-(1,11415)  1.02095783E-04                    1_GWF-(1,11132)
        224          5         24  6.87296407E-03                    1_GWF-(1,26486)  1.45365865E-04                    1_GWF-(1,11352)
        225          5         25  7.68833207E-03                    1_GWF-(1,26350)  1.16322222E-04                    1_GWF-(1,11048)
        226          5         26  8.72976216E-03                    1_GWF-(1,26486)  1.78096193E-04                     1_GWF-(1,9691)
        227          5         27  7.11493235E-03                    1_GWF-(1,26544)  1.34037828E-04                     1_GWF-(1,9692)
        228          5         28  6.71473213E-03                    1_GWF-(1,26486)  8.99158583E-05                     1_GWF-(1,9691)
        229          5         29  6.27391922E-03                    1_GWF-(1,26622) -1.13386522E-04                    1_GWF-(1,10651)
        230          5         30  5.69553817E-03                    1_GWF-(1,26649)  1.25229143E-04                     1_GWF-(1,9692)
        231          5         31  5.34964083E-03                    1_GWF-(1,26422)  1.90510351E-04                     1_GWF-(1,9691)
        232          5         32 -5.99685462E-03                    1_GWF-(1,26422)  1.24576736E-04                     1_GWF-(1,9692)
        233          5         33 -5.34211763E-03                    1_GWF-(1,26350)  1.20436885E-04                     1_GWF-(1,9691)
        234          5         34 -4.69907289E-03                    1_GWF-(1,26422)  9.34251900E-05                    1_GWF-(1,10966)
        235          5         35 -5.48392012E-03                    1_GWF-(1,26588)  1.02585860E-04                    1_GWF-(1,10651)
        236          5         36  5.97714841E-03                    1_GWF-(1,26588)  7.50727124E-05                    1_GWF-(1,11352)
        237          5         37 -7.21488143E-03                    1_GWF-(1,26588)  8.08629411E-05                    1_GWF-(1,11351)
        238          5         38 -5.26237740E-03                    1_GWF-(1,26589)  1.02802596E-04                     1_GWF-(1,9691)
        239          5         39 -5.49494550E-03                    1_GWF-(1,26588) -1.34098315E-04                    1_GWF-(1,10651)
        240          5         40 -5.17519785E-03                    1_GWF-(1,26665)  1.25309511E-04                    1_GWF-(1,10651)
        241          5         41  5.98774219E-03                    1_GWF-(1,26665)  1.20990791E-04                    1_GWF-(1,10652)
        242          5         42 -6.07899523E-03                    1_GWF-(1,26665)  1.23370304E-04                    1_GWF-(1,10651)
        243          5         43  6.15981949E-03                    1_GWF-(1,26665)  1.03345387E-04                    1_GWF-(1,10651)
        244          5         44 -4.10990238E-03                    1_GWF-(1,26665)  9.59611082E-05                    1_GWF-(1,10652)
        245          5         45  2.84263412E-03                    1_GWF-(1,26665)  1.45038831E-04                    1_GWF-(1,10651)
        246          5         46  3.14041562E-03                    1_GWF-(1,11305)  1.01724542E-04                    1_GWF-(1,10652)
        247          5         47  2.63003936E-03                    1_GWF-(1,11409)  1.02588380E-04                    1_GWF-(1,10651)
        248          5         48  2.76792639E-03                    1_GWF-(1,11413) -1.21696100E-04                    1_GWF-(1,10651)
        249          5         49  2.14094827E-03                    1_GWF-(1,26217)  1.41705307E-04                    1_GWF-(1,10651)
        250          5         50 -2.98600479E-03                     1_GWF-(1,8033)  1.13069727E-04                    1_GWF-(1,10652)
        251          6          1 -5.52692428E-03                    1_GWF-(1,11374)  1.08618323E-04                    1_GWF-(1,10651)
        252          6          2 -2.29637737E-03                    1_GWF-(1,11436) -1.06237003E-04                    1_GWF-(1,10651)
        253          6          3 -2.39226388E-03                    1_GWF-(1,26218)  1.32584757E-04                    1_GWF-(1,10651)
        254          6          4 -2.84240123E-03                    1_GWF-(1,11374) -7.32244264E-05                    1_GWF-(1,10651)
        255          6          5 -2.38268030E-03                    1_GWF-(1,26218)  9.27425851E-05                    1_GWF-(1,10653)
        256          6          6 -2.08490193E-03                    1_GWF-(1,26217)  6.16817184E-05                    1_GWF-(1,10652)
        257          6          7  2.11373747E-03                    1_GWF-(1,11316)  6.02016561E-05                    1_GWF-(1,10651)
        258          6          8 -2.74963681E-03                    1_GWF-(1,26665)  4.35204522E-05                    1_GWF-(1,10651)
        259          6          9 -2.70867918E-03                    1_GWF-(1,26666)  5.01238301E-05                    1_GWF-(1,10652)
        260          6         10 -2.68266940E-03                    1_GWF-(1,26665)  4.55802954E-05                    1_GWF-(1,10651)
        261          6         11  1.89925211E-03                    1_GWF-(1,26665) -5.28759265E-05                    1_GWF-(1,10651)
        262          6         12  1.42676100E-03                    1_GWF-(1,26588) -3.65380057E-05                    1_GWF-(1,10652)
        263          6         13  1.54023168E-03                    1_GWF-(1,26589) -1.88962462E-05                     1_GWF-(1,9691)
        264          6         14  2.31930179E-03                    1_GWF-(1,26588) -2.65646163E-05                    1_GWF-(1,10651)
        265          6         15  1.97008507E-03                    1_GWF-(1,26543)  2.29771496E-05                    1_GWF-(1,15058)
        266          6         16  2.01489239E-03                    1_GWF-(1,26588)  2.24849959E-05                    1_GWF-(1,10966)
        267          6         17 -1.15181763E-03                    1_GWF-(1,26420) -2.41789486E-05                    1_GWF-(1,10966)
        268          6         18 -1.27523593E-03                    1_GWF-(1,26422) -3.13798979E-05                    1_GWF-(1,15080)
        269          6         19  1.40853171E-03                    1_GWF-(1,26422) -3.80527960E-05                    1_GWF-(1,10651)
        270          6         20  1.34017957E-03                    1_GWF-(1,26350) -2.95349184E-05                    1_GWF-(1,10652)
        271          6         21  1.17971061E-03                    1_GWF-(1,26422) -3.39574573E-05                    1_GWF-(1,10651)
        272          6         22 -1.44191375E-03                    1_GWF-(1,26622)  1.48413929E-05                    1_GWF-(1,10864)
        273          6         23 -1.58557261E-03                    1_GWF-(1,26649)  2.18497365E-05                     1_GWF-(1,5697)
        274          6         24 -1.53214617E-03                    1_GWF-(1,26544) -4.13639469E-05                    1_GWF-(1,10651)
        275          6         25 -1.71472230E-03                    1_GWF-(1,26486) -2.89583045E-05                    1_GWF-(1,10652)
        276          6         26 -1.52419396E-03                    1_GWF-(1,26350) -1.92589397E-05                    1_GWF-(1,10653)
        277          6         27 -1.28185776E-03                    1_GWF-(1,26422) -1.63907700E-05                    1_GWF-(1,10654)
        278          6         28  9.97452001E-04                    1_GWF-(1,26486) -2.04606012E-05                    1_GWF-(1,10652)
        279          6         29  9.79227213E-04                    1_GWF-(1,26544) -2.58297891E-05                    1_GWF-(1,10651)
        280          6         30  1.16885563E-03                    1_GWF-(1,26486) -2.45195852E-05                    1_GWF-(1,10654)
        281          6         31  1.13238561E-03                    1_GWF-(1,26217) -4.56303242E-05                    1_GWF-(1,10651)
        282          6         32  9.77528460E-04                    1_GWF-(1,26218)  3.02635999E-05                    1_GWF-(1,10653)
        283          6         33  6.78465986E-04                    1_GWF-(1,26487)  2.86302197E-05                    1_GWF-(1,10652)
        284          6         34  7.49484474E-04                    1_GWF-(1,26486)  2.03480577E-05                     1_GWF-(1,9692)
        285          6         35 -7.61420438E-04                    1_GWF-(1,26622)  1.51216962E-05                     1_GWF-(1,9691)
        286          6         36  7.09373055E-04                    1_GWF-(1,26622)  1.62121893E-05                    1_GWF-(1,10632)
        287          6         37  5.60765801E-04                    1_GWF-(1,26623)  2.80411162E-05                    1_GWF-(1,10651)
        288          6         38  6.25336149E-04                    1_GWF-(1,11451)  3.63886977E-05                     1_GWF-(1,9691)
        289          6         39  6.63348517E-04                    1_GWF-(1,11368) -3.96582674E-05                     1_GWF-(1,9691)
        290          6         40  5.88643756E-04                    1_GWF-(1,11378)  5.87287132E-05                     1_GWF-(1,9691)
        291          6         41 -5.36005500E-04                    1_GWF-(1,11378) -6.32045493E-05                     1_GWF-(1,9691)
        292          6         42 -4.81141852E-04                    1_GWF-(1,11450)  8.23200825E-05                     1_GWF-(1,9691)
        293          6         43 -5.04138767E-04                    1_GWF-(1,11368) -8.76899094E-05                     1_GWF-(1,9691)
        294          6         44 -4.73023958E-04                    1_GWF-(1,11378)  1.00504413E-04                     1_GWF-(1,9691)
        295          6         45 -3.81223578E-04                    1_GWF-(1,11373) -9.65766814E-05                     1_GWF-(1,9691)
        296          6         46  4.84019796E-04                    1_GWF-(1,11372)  1.10832527E-04                     1_GWF-(1,9691)
        297          6         47 -4.36502158E-04                    1_GWF-(1,11369) -1.05259978E-04                     1_GWF-(1,9691)
        298          6         48  4.57466004E-04                    1_GWF-(1,11451)  1.06239000E-04                     1_GWF-(1,9691)
        299          6         49  7.15950601E-04                    1_GWF-(1,11369) -6.58767822E-05                     1_GWF-(1,9691)
        300          6         50  9.58569254E-04                    1_GWF-(1,11378)  8.58745334E-05                     1_GWF-(1,9691)
        301          7          1 -1.07158457E-03                    1_GWF-(1,11378) -6.49939860E-05                     1_GWF-(1,9691)
        302          7          2 -6.29135678E-04                    1_GWF-(1,11369)  8.86581058E-05                     1_GWF-(1,9691)
        303          7          3 -4.51822309E-04                    1_GWF-(1,11451) -8.46627661E-05                     1_GWF-(1,9691)
        304          7          4  3.27810205E-04                    1_GWF-(1,11369)  8.63325255E-05                     1_GWF-(1,9691)
        305          7          5 -3.94389788E-04                    1_GWF-(1,11373) -6.93516410E-05                     1_GWF-(1,9691)
        306          7          6  3.66633982E-04                    1_GWF-(1,11373)  6.70599279E-05                     1_GWF-(1,9691)
        307          7          7  2.99102776E-04                    1_GWF-(1,11378) -5.70228880E-05                     1_GWF-(1,9691)
        308          7          8  2.75588554E-04                    1_GWF-(1,11368)  5.37263926E-05                     1_GWF-(1,9691)
        309          7          9  2.68579148E-04                    1_GWF-(1,11373) -4.00207341E-05                     1_GWF-(1,9691)
        310          7         10 -2.42307910E-04                    1_GWF-(1,11373)  3.40411802E-05                     1_GWF-(1,9691)
        311          7         11 -3.16607167E-04                    1_GWF-(1,11378)  2.12903979E-05                     1_GWF-(1,9692)
        312          7         12 -2.92508883E-04                    1_GWF-(1,11368)  1.94507225E-05                     1_GWF-(1,9691)
        313          7         13 -2.55187841E-04                    1_GWF-(1,11451)  9.41229593E-06                    1_GWF-(1,10651)
        314          7         14 -3.76452538E-04                    1_GWF-(1,26588)  5.42956785E-06                    1_GWF-(1,10654)
        315          7         15  3.87484010E-04                    1_GWF-(1,26588)  9.57758057E-06                     1_GWF-(1,9691)
        316          7         16 -4.26724252E-04                    1_GWF-(1,26588)  9.74682583E-06                     1_GWF-(1,9692)
        317          7         17  2.71017818E-04                    1_GWF-(1,26588)  1.05510383E-05                     1_GWF-(1,9691)
        318          7         18 -1.77983341E-04                    1_GWF-(1,26588)  9.19269015E-06                    1_GWF-(1,10653)
        319          7         19  2.70148498E-04                    1_GWF-(1,26649) -7.76471826E-06                    1_GWF-(1,10651)
        320          7         20 -3.46463657E-04                    1_GWF-(1,26649)  5.71222682E-06                     1_GWF-(1,9691)
        321          7         21  3.47103190E-04                    1_GWF-(1,26649)  6.92454220E-06                     1_GWF-(1,9692)
        322          7         22 -2.35083600E-04                    1_GWF-(1,26487) -8.24583702E-06                    1_GWF-(1,10653)
        323          7         23  1.91046779E-04                    1_GWF-(1,11454) -6.01044844E-06                    1_GWF-(1,10654)
        324          7         24  1.94070480E-04                    1_GWF-(1,26420) -6.62168986E-06                    1_GWF-(1,10653)
        325          7         25  2.16775097E-04                    1_GWF-(1,26421)  3.32193226E-06                    1_GWF-(1,11058)
        326          7         26  2.50616544E-04                    1_GWF-(1,26420)  3.33468054E-06                    1_GWF-(1,10959)
        327          7         27  2.20570102E-04                    1_GWF-(1,26421)  3.42708925E-06                     1_GWF-(1,9691)
        328          7         28  2.23294886E-04                    1_GWF-(1,26420)  3.00459446E-06                     1_GWF-(1,9692)
        329          7         29  1.88801475E-04                    1_GWF-(1,26487) -2.83638823E-06                    1_GWF-(1,10653)
        330          7         30  1.95829157E-04                    1_GWF-(1,26486)  2.05904211E-06                     1_GWF-(1,9691)
        331          7         31  1.73782312E-04                    1_GWF-(1,26544)  4.02030967E-06                    1_GWF-(1,10961)
        332          7         32  1.91368794E-04                    1_GWF-(1,26486) -4.42221712E-06                    1_GWF-(1,10653)
        333          7         33  1.49892423E-04                    1_GWF-(1,26544)  4.17283471E-06                    1_GWF-(1,10653)
        334          7         34  1.62988348E-04                    1_GWF-(1,26422)  3.71330297E-06                     1_GWF-(1,9691)
        335          7         35  1.61551762E-04                    1_GWF-(1,26350)  3.17564508E-06                     1_GWF-(1,9692)
        336          7         36  1.30240635E-04                    1_GWF-(1,26422)  2.25886948E-06                     1_GWF-(1,9691)
        337          7         37 -1.39799954E-04                    1_GWF-(1,26665) -2.10724273E-06                    1_GWF-(1,10961)
        338          7         38 -1.36148582E-04                    1_GWF-(1,26623) -1.93115827E-06                    1_GWF-(1,10658)
        339          7         39 -1.60119103E-04                    1_GWF-(1,26665) -3.11698843E-06                    1_GWF-(1,10653)
        340          7         40 -1.29488363E-04                    1_GWF-(1,26422)  2.16806352E-06                    1_GWF-(1,10653)
        341          7         41 -1.46078903E-04                    1_GWF-(1,26350)  3.30255368E-06                     1_GWF-(1,9691)
        342          7         42 -1.45812303E-04                    1_GWF-(1,26422)  2.55502370E-06                     1_GWF-(1,9692)
        343          7         43 -1.27194479E-04                    1_GWF-(1,26350)  3.42421027E-06                    1_GWF-(1,10653)
        344          7         44 -1.07784247E-04                    1_GWF-(1,26422)  2.97860735E-06                    1_GWF-(1,10654)
        345          7         45  7.36175394E-05                    1_GWF-(1,26217)  4.29482985E-06                    1_GWF-(1,10653)
        346          7         46  8.05378168E-05                    1_GWF-(1,26218) -3.06599634E-06                    1_GWF-(1,10653)
        347          7         47  8.50629717E-05                    1_GWF-(1,26422)  3.94777765E-06                    1_GWF-(1,10653)
        348          7         48  8.63770248E-05                    1_GWF-(1,26218) -3.48895284E-06                    1_GWF-(1,10653)
        349          7         49  6.92980399E-05                    1_GWF-(1,26217)  4.90848399E-06                    1_GWF-(1,10653)
        350          7         50  9.95322654E-05                    1_GWF-(1,11374) -4.31323096E-06                    1_GWF-(1,10653)
        351          8          1 -9.60526305E-05                    1_GWF-(1,11374)  4.57121216E-06                    1_GWF-(1,10653)
        352          8          2 -6.54357420E-05                    1_GWF-(1,11436)  3.41115174E-06                    1_GWF-(1,10654)
        353          8          3 -7.73775312E-05                    1_GWF-(1,26218)  3.76128238E-06                    1_GWF-(1,10653)
        354          8          4 -7.16032011E-05                    1_GWF-(1,26217) -3.10668550E-06                    1_GWF-(1,10653)
        355          8          5 -6.84985703E-05                    1_GWF-(1,26218)  3.46696177E-06                    1_GWF-(1,10653)
        356          8          6 -5.17502698E-05                    1_GWF-(1,26217)  1.82499507E-06                    1_GWF-(1,10654)
        357          8          7  7.25151548E-05                    1_GWF-(1,26486)  1.17099088E-06                    1_GWF-(1,10653)
        358          8          8 -9.62776169E-05                    1_GWF-(1,26486)  1.87028200E-06                    1_GWF-(1,10653)
        359          8          9  9.03445099E-05                    1_GWF-(1,26486)  1.56187769E-06                    1_GWF-(1,10658)
        360          8         10  6.56050782E-05                    1_GWF-(1,26487) -1.21263154E-06                    1_GWF-(1,10654)
        361          8         11  5.53698282E-05                    1_GWF-(1,26350) -9.06347262E-07                    1_GWF-(1,10653)
        362          8         12  5.63106885E-05                    1_GWF-(1,26422)  9.21557355E-07                     1_GWF-(1,9691)
        363          8         13  5.50772882E-05                    1_GWF-(1,26622) -7.50403765E-07                    1_GWF-(1,10654)
        364          8         14  7.23245990E-05                    1_GWF-(1,26649) -1.35515102E-06                    1_GWF-(1,10653)
        365          8         15  8.80981474E-05                    1_GWF-(1,26622) -6.14115432E-07                    1_GWF-(1,10654)
        366          8         16  6.57762401E-05                    1_GWF-(1,26623)  7.65117788E-07                    1_GWF-(1,10966)
        367          8         17  4.61492540E-05                    1_GWF-(1,26622) -8.59970037E-07                    1_GWF-(1,10653)
        368          8         18 -4.70447303E-05                    1_GWF-(1,26422)  9.21666611E-07                    1_GWF-(1,10653)
        369          8         19 -5.27942776E-05                    1_GWF-(1,26665) -9.02669881E-07                    1_GWF-(1,10653)
        370          8         20 -4.50389676E-05                    1_GWF-(1,26543)  9.38872869E-07                    1_GWF-(1,10961)
        371          8         21 -4.61757675E-05                    1_GWF-(1,26588)  5.87151898E-07                    1_GWF-(1,11044)
        372          8         22 -3.79998929E-05                    1_GWF-(1,26543) -8.04997159E-07                    1_GWF-(1,10653)
        373          8         23 -4.05517871E-05                    1_GWF-(1,26588) -1.06195045E-06                    1_GWF-(1,10654)
        374          8         24 -4.21894614E-05                    1_GWF-(1,26350) -1.27919144E-06                    1_GWF-(1,10653)
        375          8         25 -4.13965393E-05                    1_GWF-(1,26486)  6.87701092E-07                    1_GWF-(1,10653)
        376          8         26  4.33971518E-05                    1_GWF-(1,26588)  5.72724696E-07                    1_GWF-(1,11058)
        377          8         27  3.96945577E-05                    1_GWF-(1,26589) -8.41776857E-07                    1_GWF-(1,10653)
        378          8         28  4.17005804E-05                    1_GWF-(1,26588) -7.22194159E-07                    1_GWF-(1,10658)
        379          8         29  3.52164547E-05                    1_GWF-(1,26665)  7.63794996E-07                     1_GWF-(1,9691)
        380          8         30  4.02027013E-05                    1_GWF-(1,26350)  5.85242289E-07                     1_GWF-(1,9692)
        381          8         31  4.13327462E-05                    1_GWF-(1,26421)  4.47664170E-07                    1_GWF-(1,15078)
        382          8         32  3.42465117E-05                    1_GWF-(1,26420) -5.34728650E-07                    1_GWF-(1,10651)
        383          8         33  2.86825988E-05                    1_GWF-(1,26421)  9.26151911E-07                    1_GWF-(1,10651)
        384          8         34  1.81597437E-05                    1_GWF-(1,26420) -8.53122711E-07                    1_GWF-(1,10653)
        385          8         35 -1.91780709E-05                    1_GWF-(1,11369)  1.04259148E-06                    1_GWF-(1,10653)
        386          8         36 -1.72126619E-05                    1_GWF-(1,11378)  8.93108777E-07                     1_GWF-(1,9691)
        387          8         37 -1.55535829E-05                    1_GWF-(1,26217)  8.59162303E-07                    1_GWF-(1,10651)
        388          8         38  1.91874683E-05                    1_GWF-(1,11451)  1.25864144E-06                     1_GWF-(1,9691)
        389          8         39  1.57091766E-05                    1_GWF-(1,11368)  1.26814243E-06                     1_GWF-(1,9692)
        390          8         40  1.44696812E-05                    1_GWF-(1,11378)  1.88689575E-06                     1_GWF-(1,9691)
        391          8         41 -1.44147433E-05                    1_GWF-(1,11378) -2.05423415E-06                     1_GWF-(1,9691)
        392          8         42 -1.52166749E-05                    1_GWF-(1,26649)  2.58389871E-06                     1_GWF-(1,9691)
        393          8         43 -1.79398290E-05                    1_GWF-(1,26622) -2.14769094E-06                     1_GWF-(1,9691)
        394          8         44 -2.14564174E-05                    1_GWF-(1,26649)  1.06194438E-06                     1_GWF-(1,9691)
        395          8         45 -2.02824874E-05                    1_GWF-(1,26622)  8.04943209E-07                     1_GWF-(1,9691)
        396          8         46  1.45740115E-05                    1_GWF-(1,26622) -1.71694010E-06                     1_GWF-(1,9691)
        397          8         47 -1.45169835E-05                    1_GWF-(1,11454)  2.75274457E-06                     1_GWF-(1,9691)
        398          8         48 -1.73692892E-05                    1_GWF-(1,11373) -2.97010970E-06                     1_GWF-(1,9691)
        399          8         49  1.53235413E-05                    1_GWF-(1,11369)  3.07887636E-06                     1_GWF-(1,9691)
        400          8         50  2.64932613E-05                    1_GWF-(1,11378) -3.00117049E-06                     1_GWF-(1,9691)
        401          9          1 -1.70815354E-05                    1_GWF-(1,11378)  4.17299065E-06                     1_GWF-(1,9691)
        402          9          2  1.23581807E-05                    1_GWF-(1,26486) -2.33463772E-06                     1_GWF-(1,9691)
        403          9          3  1.56029246E-05                    1_GWF-(1,26487)  2.14974787E-07                    1_GWF-(1,10959)
        404          9          4  1.62559936E-05                    1_GWF-(1,26486)  2.27865819E-06                     1_GWF-(1,9691)
        405          9          5 -1.39560651E-05                    1_GWF-(1,26486) -2.34739927E-06                     1_GWF-(1,9691)
        406          9          6  8.59460026E-06                    1_GWF-(1,11458)  2.27163314E-06                     1_GWF-(1,9691)
        407          9          7 -7.33339320E-06                    1_GWF-(1,23325) -2.11985202E-06                     1_GWF-(1,9691)
        408          9          8 -8.96485074E-06                     1_GWF-(1,8100)  1.96703396E-06                     1_GWF-(1,9691)
        409          9          9  1.04778240E-05                    1_GWF-(1,26588) -1.17013892E-06                     1_GWF-(1,9691)
        410          9         10  1.48107912E-05                    1_GWF-(1,26622)  2.83906543E-07                     1_GWF-(1,9691)
        411          9         11  1.50774579E-05                    1_GWF-(1,26623)  8.14144413E-07                     1_GWF-(1,9691)
        412          9         12  1.28819468E-05                    1_GWF-(1,26622) -1.01493311E-06                     1_GWF-(1,9691)
        413          9         13 -9.24467490E-06                    1_GWF-(1,26622)  1.11434073E-06                     1_GWF-(1,9691)
        414          9         14 -5.46901383E-06                    1_GWF-(1,26623) -7.18377997E-07                     1_GWF-(1,9691)
        415          9         15 -5.04578846E-06                    1_GWF-(1,26647)  6.31121440E-07                     1_GWF-(1,9691)
        416          9         16 -8.35683607E-06                    1_GWF-(1,26665)  3.38542107E-07                     1_GWF-(1,9692)
        417          9         17 -9.23854204E-06                    1_GWF-(1,26666)  2.13958563E-07                    1_GWF-(1,10652)
        418          9         18 -1.22332125E-05                    1_GWF-(1,26665)  2.43267885E-07                     1_GWF-(1,9691)
        419          9         19  1.19265989E-05                    1_GWF-(1,26665)  3.56388223E-07                     1_GWF-(1,9692)
        420          9         20  7.38531262E-06                    1_GWF-(1,26666)  4.81016779E-07                     1_GWF-(1,9691)
        421          9         21 -8.03042483E-06                    1_GWF-(1,26420)  3.09582810E-07                     1_GWF-(1,9692)
        422          9         22 -6.42827374E-06                    1_GWF-(1,26421) -2.85063324E-07                    1_GWF-(1,10651)
        423          9         23 -6.85772636E-06                    1_GWF-(1,26588) -1.67317891E-07                    1_GWF-(1,10632)
        424          9         24 -7.56960842E-06                    1_GWF-(1,26543) -1.04215584E-07                    1_GWF-(1,11202)
        425          9         25 -7.67530329E-06                    1_GWF-(1,26665)  2.18284139E-07                     1_GWF-(1,9691)
        426          9         26 -5.73702823E-06                    1_GWF-(1,26666)  1.81245701E-07                     1_GWF-(1,9692)
        427          9         27  4.75875270E-06                    1_GWF-(1,26217) -2.47715653E-07                    1_GWF-(1,10653)
        428          9         28  4.38196770E-06                    1_GWF-(1,26218)  2.05682573E-07                    1_GWF-(1,10653)
        429          9         29  3.68343090E-06                    1_GWF-(1,25507) -1.95468154E-07                    1_GWF-(1,10653)
        430          9         30 -3.92084148E-06                    1_GWF-(1,26217) -1.00718142E-07                    1_GWF-(1,10654)
        431          9         31  4.60623979E-06                    1_GWF-(1,26589)  9.93428829E-08                     1_GWF-(1,9691)
        432          9         32  4.60227990E-06                    1_GWF-(1,26588)  1.01811864E-07                    1_GWF-(1,11058)
        433          9         33  4.50982355E-06                    1_GWF-(1,26586) -1.03144012E-07                    1_GWF-(1,10966)
        434          9         34  5.56835710E-06                    1_GWF-(1,26623) -1.00182594E-07                    1_GWF-(1,10650)
        435          9         35 -6.36574446E-06                    1_GWF-(1,26649)  7.78629790E-08                    1_GWF-(1,10653)
        436          9         36 -7.25373056E-06                    1_GWF-(1,26622)  7.81162120E-08                    1_GWF-(1,11197)
        437          9         37 -6.41429736E-06                    1_GWF-(1,26649) -1.10328912E-07                    1_GWF-(1,10653)
        438          9         38 -4.84192576E-06                    1_GWF-(1,26486)  1.35358629E-07                    1_GWF-(1,10653)
        439          9         39 -4.61427704E-06                    1_GWF-(1,26350) -1.55412440E-07                    1_GWF-(1,10653)
        440          9         40 -4.84116592E-06                    1_GWF-(1,26422)  9.86693677E-08                    1_GWF-(1,10653)
        441          9         41  4.49144114E-06                    1_GWF-(1,26486)  9.89463979E-08                     1_GWF-(1,9691)
        442          9         42 -5.49594110E-06                    1_GWF-(1,26486)  6.89224642E-08                     1_GWF-(1,9692)
        443          9         43 -5.67574401E-06                    1_GWF-(1,26487)  1.15881764E-07                    1_GWF-(1,10653)
        444          9         44 -5.09336747E-06                    1_GWF-(1,26420)  7.74431615E-08                    1_GWF-(1,10658)
        445          9         45 -4.19843070E-06                    1_GWF-(1,26422)  5.20919411E-08                     1_GWF-(1,9692)
        446          9         46  3.88498885E-06                    1_GWF-(1,26422)  6.02001202E-08                     1_GWF-(1,9691)
        447          9         47  3.85954468E-06                    1_GWF-(1,26350) -6.73992822E-08                    1_GWF-(1,10653)
        448          9         48  3.57443481E-06                    1_GWF-(1,26422)  1.19242147E-07                    1_GWF-(1,10653)
        449          9         49  3.12589581E-06                    1_GWF-(1,26218) -1.16858098E-07                    1_GWF-(1,10653)
        450          9         50  2.47465212E-06                    1_GWF-(1,26217)  1.77967468E-07                    1_GWF-(1,10653)
        451         10          1 -2.95646406E-06                    1_GWF-(1,26217) -2.22433413E-07                    1_GWF-(1,10653)
        452         10          2 -3.47935100E-06                    1_GWF-(1,26218)  1.48120106E-07                    1_GWF-(1,10653)
        453         10          3 -3.20203978E-06                    1_GWF-(1,26422) -7.07803956E-08                    1_GWF-(1,10653)
        454         10          4 -2.94370662E-06                    1_GWF-(1,26350)  4.30047502E-08                    1_GWF-(1,10651)
        455         10          5  3.45572230E-06                    1_GWF-(1,26588)  5.38488935E-08                    1_GWF-(1,10653)
        456         10          6 -3.56522496E-06                    1_GWF-(1,26588)  8.66129164E-08                    1_GWF-(1,10654)
        457         10          7  2.92058736E-06                    1_GWF-(1,26588)  1.03410371E-07                    1_GWF-(1,10653)
        458         10          8 -2.55709511E-06                    1_GWF-(1,26588)  5.19174515E-08                    1_GWF-(1,10629)
        459         10          9  2.11460340E-06                    1_GWF-(1,26217)  3.86521243E-08                    1_GWF-(1,11202)
        460         10         10 -2.49984414E-06                    1_GWF-(1,26623)  4.05408084E-08                    1_GWF-(1,10653)
        461         10         11 -2.92137266E-06                    1_GWF-(1,26622) -6.08325651E-08                    1_GWF-(1,10653)
        462         10         12  2.99537883E-06                    1_GWF-(1,26622) -3.57271408E-08                    1_GWF-(1,11196)
        463         10         13  2.36780385E-06                    1_GWF-(1,26649)  2.78931833E-08                    1_GWF-(1,11196)
        464         10         14  1.82667019E-06                    1_GWF-(1,26622) -5.85936718E-08                    1_GWF-(1,10653)
        465         10         15  1.94974684E-06                    1_GWF-(1,26665) -3.77057217E-08                    1_GWF-(1,10654)
        466         10         16 -1.95500516E-06                    1_GWF-(1,26665) -3.48829067E-08                    1_GWF-(1,10650)
        467         10         17  1.91121749E-06                    1_GWF-(1,26665) -2.91265262E-08                    1_GWF-(1,10966)
        468         10         18 -1.80213239E-06                    1_GWF-(1,26665) -2.63245152E-08                    1_GWF-(1,10658)
        469         10         19 -1.45431676E-06                    1_GWF-(1,26543)  3.30914919E-08                     1_GWF-(1,9691)
        470         10         20 -1.64524074E-06                    1_GWF-(1,26588)  2.92971421E-08                    1_GWF-(1,10653)
        471         10         21  1.37622998E-06                    1_GWF-(1,26422) -2.78186880E-08                    1_GWF-(1,10653)
        472         10         22 -1.44631530E-06                    1_GWF-(1,26487)  2.23718035E-08                    1_GWF-(1,11056)
        473         10         23 -1.50487509E-06                    1_GWF-(1,26486)  2.99190990E-08                    1_GWF-(1,10653)
        474         10         24 -1.37226252E-06                    1_GWF-(1,26487) -4.22054460E-08                    1_GWF-(1,10653)
        475         10         25 -1.54527098E-06                    1_GWF-(1,26486) -2.67931032E-08                    1_GWF-(1,10652)
        476         10         26 -1.45144800E-06                    1_GWF-(1,26350) -2.71336783E-08                    1_GWF-(1,11197)
        477         10         27 -1.12874533E-06                    1_GWF-(1,26422)  2.50992194E-08                    1_GWF-(1,11052)
        478         10         28  9.57311874E-07                    1_GWF-(1,26486)  2.15379921E-08                    1_GWF-(1,15187)
        479         11          1 -6.90739344E-07                    1_GWF-(1,26486) -1.64143033E-08                    1_GWF-(1,15187)
 --------------------------------------------------------------------------------------------------------------------------------------



 MEMORY MANAGER TOTAL STORAGE BY DATA TYPE, IN MEGABYTES
 -------------------------------
                    ALLOCATED   
 DATA TYPE           MEMORY     
 -------------------------------
 Character        4.66090000E-02
 Logical          4.40000000E-05
 Integer          5.2037920     
 Real             11.901376     
 -------------------------------
 Total            17.151821     
 -------------------------------


 
 Run end date and time (yyyy/mm/dd hh:mm:ss): 2022/04/25 11:39:44
 Elapsed run time:  0.569 Seconds
 Normal termination of simulation.
