                                   MODFLOW 6
                U.S. GEOLOGICAL SURVEY MODULAR HYDROLOGIC MODEL
                            VERSION 6.2.2 07/30/2021

   MODFLOW 6 compiled Jul 31 2021 14:22:53 with IFORT compiler (ver. 19.10.3)

This software has been approved for release by the U.S. Geological 
Survey (USGS). Although the software has been subjected to rigorous 
review, the USGS reserves the right to update the software as needed 
pursuant to further analysis and review. No warranty, expressed or 
implied, is made by the USGS or the U.S. Government as to the 
functionality of the software and related material nor shall the 
fact of release constitute any such warranty. Furthermore, the 
software is released on condition that neither the USGS nor the U.S. 
Government shall be held liable for any damages resulting from its 
authorized or unauthorized use. Also refer to the USGS Water 
Resources Software User Rights Notice for complete use, copyright, 
and distribution information.


System command used to initiate simulation:
mf6

MODFLOW was compiled using uniform precision.

Real Variables
  KIND: 8
  TINY (smallest non-zero value):    2.225074-308
  HUGE (largest value):    1.797693+308
  PRECISION: 15
  BIT SIZE: 64

Integer Variables
  KIND: 4
  HUGE (largest value): 2147483647
  BIT SIZE: 32

Long Integer Variables
  KIND: 8
  HUGE (largest value): 9223372036854775807
  BIT SIZE: 64

Logical Variables
  KIND: 4
  BIT SIZE: 32
 

 OPENED mfsim.nam
 FILE TYPE:NAM   UNIT 1001   STATUS:OLD                 
 FORMAT:FORMATTED              ACCESS:SEQUENTIAL          
 ACTION:READ                

 # File generated by Flopy version 3.3.5 on 06/01/2022 at 13:18:56.

 READING SIMULATION OPTIONS
 END OF SIMULATION OPTIONS

 READING SIMULATION TIMING

 OPENED mfsim.tdis
 FILE TYPE:TDIS   UNIT 1002   STATUS:OLD                 
 FORMAT:FORMATTED              ACCESS:SEQUENTIAL          
 ACTION:READ                


 TDIS -- TEMPORAL DISCRETIZATION PACKAGE,
 VERSION 1 : 11/13/2014 - INPUT READ FROM UNIT 1002
 # File generated by Flopy version 3.3.5 on 06/01/2022 at 13:18:56.
 PROCESSING TDIS OPTIONS
    SIMULATION TIME UNIT IS SECONDS
 END OF TDIS OPTIONS
 PROCESSING TDIS DIMENSIONS
    1 STRESS PERIOD(S) IN SIMULATION
 END OF TDIS DIMENSIONS
 PROCESSING TDIS PERIODDATA


 STRESS PERIOD     LENGTH       TIME STEPS     MULTIPLIER FOR DELT
 ----------------------------------------------------------------------------
        1         7.000000          1                    1.000
 END OF TDIS PERIODDATA
 END OF SIMULATION TIMING

 READING SIMULATION MODELS
    GWF6 model ML will be created as model 1
 END OF SIMULATION MODELS

 READING SIMULATION EXCHANGES
 END OF SIMULATION EXCHANGES

 READING SOLUTIONGROUP

 Creating solution: SLN_1           

 OPENED mfsim.ims
 FILE TYPE:IMS   UNIT 1015   STATUS:OLD                 
 FORMAT:FORMATTED              ACCESS:SEQUENTIAL          
 ACTION:READ                

 END OF SIMULATION SOLUTIONGROUP

 IMS -- ITERATIVE MODEL SOLUTION PACKAGE, VERSION 6, 4/28/2017
         INPUT READ FROM UNIT 1015
 # File generated by Flopy version 3.3.5 on 06/01/2022 at 13:18:56.

 PROCESSING IMS OPTIONS
 END OF IMS OPTIONS

 PROCESSING IMS NONLINEAR
 END OF IMS NONLINEAR DATA
 ***UNDER-RELAXATION WILL NOT BE USED***
 
 ***IMS LINEAR SOLVER WILL BE USED***

 IMSLINEAR -- UNSTRUCTURED LINEAR SOLUTION PACKAGE, VERSION 8, 04/28/2017

 PROCESSING LINEAR DATA
 END OF LINEAR DATA
 
 OUTER ITERATION CONVERGENCE CRITERION    (DVCLOSE) =    0.100000E-04
 MAXIMUM NUMBER OF OUTER ITERATIONS        (MXITER) = 100
 SOLVER PRINTOUT INDEX                     (IPRIMS) = 2
 NONLINEAR ITERATION METHOD            (NONLINMETH) = 0
 LINEAR SOLUTION METHOD                   (LINMETH) = 1

       SOLUTION BY THE        CONJUGATE-GRADIENT       METHOD
 ------------------------------------------------------------------
 MAXIMUM OF 100 CALLS OF SOLUTION ROUTINE
 MAXIMUM OF 50 INTERNAL ITERATIONS PER CALL TO SOLUTION ROUTINE
 LINEAR ACCELERATION METHOD            = CG        
 MATRIX PRECONDITIONING TYPE           = INCOMPLETE LU       
 MATRIX SCALING APPROACH               = NO SCALING          
 MATRIX REORDERING APPROACH            = ORIGINAL ORDERING        
 NUMBER OF ORTHOGONALIZATIONS          = 0
 HEAD CHANGE CRITERION FOR CLOSURE     =    0.10000E-05
 RESIDUAL CHANGE CRITERION FOR CLOSURE =    0.10000E-04
 RESIDUAL CONVERGENCE OPTION           = 1
 RESIDUAL CONVERGENCE NORM             = INFINITY NORM S 
 RELAXATION FACTOR                     =    0.00000E+00



 
    Solving:  Stress period:     1    Time step:     1
 
1
                            STRESS PERIOD NO. 1, LENGTH =   7.000000    
                            -----------------------------------------------
                            NUMBER OF TIME STEPS = 1
                            MULTIPLIER FOR DELT =     1.000
                            INITIAL TIME STEP SIZE =   7.000000    

 SLN_1 OUTER ITERATION SUMMARY
 ----------------------------------------------------------------------------------------------------------
                                OUTER      INNER                    STEP   MAXIMUM CHANGE MODEL-(CELLID) OR
 OUTER ITERATION STEP       ITERATION  ITERATION  MAXIMUM CHANGE SUCCESS             MODEL-PACKAGE-(NUMBER)
 ----------------------------------------------------------------------------------------------------------
 Model                              1         50       27.344988                            1_GWF-(1,26519)
 Model                              2         50      -22.407493                            1_GWF-(1,26519)
 Model                              3         50       1.7113098                            1_GWF-(1,24194)
 Model                              4         50     -0.33574950                            1_GWF-(1,24362)
 Model                              5         50      0.11002629                            1_GWF-(1,23068)
 Model                              6         50 -3.67338767E-02                             1_GWF-(1,8836)
 Model                              7         50  1.13540308E-02                            1_GWF-(1,24772)
 Model                              8         50 -5.34102608E-03                            1_GWF-(1,11439)
 Model                              9         50  1.37335551E-03                            1_GWF-(1,24769)
 Model                             10         50 -4.97921499E-04                             1_GWF-(1,8272)
 Model                             11         50  1.64522976E-04                            1_GWF-(1,24769)
 Model                             12         50 -5.95119239E-05                             1_GWF-(1,8273)
 Model                             13         50  1.96449922E-05                            1_GWF-(1,24770)
 Model                             14         23 -5.23463136E-06                            1_GWF-(1,22885)
 Model                             15          1  7.08953689E-07       *                    1_GWF-(1,15756)
 ----------------------------------------------------------------------------------------------------------


 15 CALLS TO NUMERICAL SOLUTION IN TIME STEP 1 STRESS PERIOD 1
 674 TOTAL ITERATIONS

 SLN_1 INNER ITERATION SUMMARY
 --------------------------------------------------------------------------------------------------------------------------------------
      TOTAL      OUTER      INNER                                                            MAXIMUM                                   
  ITERATION  ITERATION  ITERATION  MAXIMUM CHANGE      MAXIMUM CHANGE MODEL-(CELLID)        RESIDUAL    MAXIMUM RESIDUAL MODEL-(CELLID)
 --------------------------------------------------------------------------------------------------------------------------------------
          1          1          1      -11.760778                    1_GWF-(1,12785)      0.58881569                    1_GWF-(1,15911)
          2          1          2       5.9146644                    1_GWF-(1,26601)      0.39573681                    1_GWF-(1,15921)
          3          1          3       6.0578147                    1_GWF-(1,26565)      0.35193651                    1_GWF-(1,15940)
          4          1          4       5.5007164                    1_GWF-(1,26510)      0.26875441                    1_GWF-(1,15975)
          5          1          5       4.0275133                    1_GWF-(1,26647)     -0.12406724                    1_GWF-(1,15912)
          6          1          6       4.0124568                    1_GWF-(1,26649) -8.10784422E-02                    1_GWF-(1,15918)
          7          1          7       3.3250828                    1_GWF-(1,26663) -9.78576733E-02                    1_GWF-(1,15948)
          8          1          8       4.3826088                    1_GWF-(1,26665) -9.71208026E-02                    1_GWF-(1,15942)
          9          1          9       4.6771905                    1_GWF-(1,26666) -6.10658935E-02                    1_GWF-(1,15940)
         10          1         10       6.4292963                    1_GWF-(1,26665) -6.10917369E-02                    1_GWF-(1,15948)
         11          1         11       4.2808113                    1_GWF-(1,26666)  6.11113653E-02                    1_GWF-(1,15940)
         12          1         12       3.3317043                    1_GWF-(1,26649)  6.16929161E-02                    1_GWF-(1,15942)
         13          1         13       2.9804096                    1_GWF-(1,26622)  4.33213776E-02                    1_GWF-(1,15940)
         14          1         14      -2.8368523                    1_GWF-(1,26622) -3.52899613E-02                    1_GWF-(1,15921)
         15          1         15      -2.3245779                    1_GWF-(1,26623)  3.62273061E-02                    1_GWF-(1,10652)
         16          1         16      -2.1092074                    1_GWF-(1,26622)  4.15448264E-02                    1_GWF-(1,10650)
         17          1         17      -1.9754577                    1_GWF-(1,26623)  3.10454602E-02                    1_GWF-(1,14799)
         18          1         18      -2.1074002                    1_GWF-(1,26589) -3.45490394E-02                    1_GWF-(1,15941)
         19          1         19      -3.5951855                    1_GWF-(1,26588)  4.24078286E-02                    1_GWF-(1,10966)
         20          1         20      -3.8228208                    1_GWF-(1,26543)  4.47721073E-02                    1_GWF-(1,10650)
         21          1         21      -3.4197405                    1_GWF-(1,26588) -2.92432360E-02                    1_GWF-(1,11194)
         22          1         22      -3.1518366                    1_GWF-(1,26486)  3.35920119E-02                    1_GWF-(1,10652)
         23          1         23      -3.3073738                    1_GWF-(1,26487)  3.39957352E-02                    1_GWF-(1,10650)
         24          1         24      -3.4151604                    1_GWF-(1,26486)  3.23200586E-02                    1_GWF-(1,14799)
         25          1         25      -2.8556545                    1_GWF-(1,26487)  2.54392466E-02                    1_GWF-(1,10955)
         26          1         26       2.5709341                    1_GWF-(1,20913)  3.03293980E-02                    1_GWF-(1,10651)
         27          1         27       2.5224062                    1_GWF-(1,20921)  3.10922273E-02                    1_GWF-(1,15853)
         28          1         28       1.7336892                    1_GWF-(1,26487)  2.23109705E-02                    1_GWF-(1,11180)
         29          1         29       1.6743199                    1_GWF-(1,26420)  2.28099893E-02                    1_GWF-(1,10652)
         30          1         30       1.7956108                    1_GWF-(1,26422)  2.65418229E-02                    1_GWF-(1,10650)
         31          1         31       1.7908824                    1_GWF-(1,26350) -2.11580630E-02                    1_GWF-(1,10966)
         32          1         32       1.6625171                    1_GWF-(1,26422) -2.51835412E-02                    1_GWF-(1,10963)
         33          1         33       1.4224705                    1_GWF-(1,26350) -1.70201755E-02                    1_GWF-(1,10958)
         34          1         34       1.3864184                    1_GWF-(1,26422) -1.68805541E-02                    1_GWF-(1,10965)
         35          1         35       1.0894697                    1_GWF-(1,26350) -2.32063148E-02                    1_GWF-(1,10963)
         36          1         36      0.80572706                    1_GWF-(1,26422) -1.90088965E-02                    1_GWF-(1,10958)
         37          1         37     -0.88360193                    1_GWF-(1,26422) -1.56434687E-02                    1_GWF-(1,10968)
         38          1         38     -0.93810712                    1_GWF-(1,26350) -1.51843314E-02                    1_GWF-(1,11180)
         39          1         39     -0.96372904                    1_GWF-(1,26422)  1.96053624E-02                    1_GWF-(1,15942)
         40          1         40     -0.89753456                    1_GWF-(1,26350) -2.11164268E-02                    1_GWF-(1,15941)
         41          1         41     -0.75313217                    1_GWF-(1,26649)  2.03033719E-02                    1_GWF-(1,15939)
         42          1         42     -0.88687394                    1_GWF-(1,26623)  1.96508828E-02                    1_GWF-(1,15940)
         43          1         43     -0.78601445                    1_GWF-(1,26586) -1.65871760E-02                    1_GWF-(1,15940)
         44          1         44     -0.63074808                    1_GWF-(1,26623) -1.99155630E-02                    1_GWF-(1,15941)
         45          1         45      0.48779903                    1_GWF-(1,26218)  2.23746967E-02                    1_GWF-(1,15941)
         46          1         46     -0.58149559                    1_GWF-(1,20926)  1.60787523E-02                    1_GWF-(1,15940)
         47          1         47     -0.61746305                    1_GWF-(1,20933) -2.21380512E-02                    1_GWF-(1,15940)
         48          1         48     -0.69418595                    1_GWF-(1,21272) -1.87123886E-02                    1_GWF-(1,15941)
         49          1         49     -0.69412627                    1_GWF-(1,21261)  2.05095121E-02                    1_GWF-(1,15941)
         50          1         50     -0.71581941                    1_GWF-(1,26218) -2.15153571E-02                    1_GWF-(1,15941)
         51          2          1      -22.808884                    1_GWF-(1,26519)     -0.16360297                    1_GWF-(1,26458)
         52          2          2      -8.8684380                    1_GWF-(1,26569)  4.62006814E-02                    1_GWF-(1,26458)
         53          2          3      -4.0757640                    1_GWF-(1,26637)  2.56069122E-02                    1_GWF-(1,26516)
         54          2          4      -4.5122347                    1_GWF-(1,26665) -2.05906478E-02                    1_GWF-(1,26458)
         55          2          5      -3.3287205                    1_GWF-(1,26649)  1.77669953E-02                    1_GWF-(1,26458)
         56          2          6      -2.6539404                    1_GWF-(1,26589)  1.08055927E-02                    1_GWF-(1,26516)
         57          2          7      -2.3586928                    1_GWF-(1,26543) -1.07291493E-02                    1_GWF-(1,15940)
         58          2          8      -2.0890056                    1_GWF-(1,26486)  1.22527484E-02                    1_GWF-(1,15940)
         59          2          9      -1.6135444                    1_GWF-(1,26487)  1.05757770E-02                     1_GWF-(1,9291)
         60          2         10      -1.4769092                    1_GWF-(1,26350)  1.05553662E-02                     1_GWF-(1,9290)
         61          2         11      -1.2229891                    1_GWF-(1,26422)  1.05116384E-02                     1_GWF-(1,9290)
         62          2         12     -0.98172097                    1_GWF-(1,26217)  1.04548039E-02                     1_GWF-(1,9290)
         63          2         13     -0.83867371                    1_GWF-(1,26218)  1.03890911E-02                     1_GWF-(1,9290)
         64          2         14     -0.60611497                    1_GWF-(1,26649)  1.02946243E-02                     1_GWF-(1,9290)
         65          2         15     -0.70431701                    1_GWF-(1,26622)  1.01305793E-02                     1_GWF-(1,9290)
         66          2         16     -0.80885706                    1_GWF-(1,25515)  9.93159409E-03                     1_GWF-(1,9290)
         67          2         17       1.1423373                    1_GWF-(1,26350)  9.77318294E-03                     1_GWF-(1,9290)
         68          2         18       1.0605987                    1_GWF-(1,26217)  9.69860924E-03                     1_GWF-(1,9290)
         69          2         19      0.90452214                    1_GWF-(1,26218)  9.66412449E-03                     1_GWF-(1,9290)
         70          2         20     -0.58124070                    1_GWF-(1,26588)  9.64174048E-03                     1_GWF-(1,9290)
         71          2         21       1.1039259                    1_GWF-(1,26588)  9.61128538E-03                     1_GWF-(1,9290)
         72          2         22       1.4865301                    1_GWF-(1,26543)  9.44225578E-03                     1_GWF-(1,9290)
         73          2         23      0.89311508                    1_GWF-(1,26542)  9.12508451E-03                     1_GWF-(1,9291)
         74          2         24     -0.89068297                    1_GWF-(1,26422)  8.76445394E-03                     1_GWF-(1,9290)
         75          2         25      -1.1954857                    1_GWF-(1,26486)  8.40092469E-03                     1_GWF-(1,9291)
         76          2         26      -1.3418022                    1_GWF-(1,26487)  8.10497765E-03                     1_GWF-(1,9290)
         77          2         27     -0.93874462                    1_GWF-(1,26420)  7.86560750E-03                     1_GWF-(1,9291)
         78          2         28     -0.49461468                    1_GWF-(1,26543)  7.70086123E-03                     1_GWF-(1,9291)
         79          2         29     -0.47521934                    1_GWF-(1,26327)  7.56441128E-03                     1_GWF-(1,9290)
         80          2         30      0.39353676                    1_GWF-(1,26420)  8.71485092E-03                    1_GWF-(1,15941)
         81          2         31     -0.39572971                    1_GWF-(1,26184)  1.35213183E-02                    1_GWF-(1,15940)
         82          2         32     -0.41226906                    1_GWF-(1,26672)  1.77278743E-02                    1_GWF-(1,15941)
         83          2         33     -0.46199252                    1_GWF-(1,26156)  2.30587636E-02                    1_GWF-(1,15940)
         84          2         34     -0.46190467                    1_GWF-(1,25790) -2.66493598E-02                    1_GWF-(1,15940)
         85          2         35      0.65991297                    1_GWF-(1,26422) -2.69120243E-02                    1_GWF-(1,15941)
         86          2         36      0.57099069                    1_GWF-(1,26350) -2.02000103E-02                    1_GWF-(1,15940)
         87          2         37     -0.55934866                    1_GWF-(1,26350) -1.06861833E-02                    1_GWF-(1,15941)
         88          2         38      0.61588311                    1_GWF-(1,26350)  7.00349904E-03                    1_GWF-(1,10650)
         89          2         39      0.57978385                    1_GWF-(1,26422) -1.18589924E-02                    1_GWF-(1,15940)
         90          2         40     -0.53587844                    1_GWF-(1,26422)  1.91901891E-02                    1_GWF-(1,15940)
         91          2         41      0.40885802                    1_GWF-(1,20977) -2.14262876E-02                    1_GWF-(1,15940)
         92          2         42      0.30176100                    1_GWF-(1,21288)  2.40372851E-02                    1_GWF-(1,15940)
         93          2         43      0.32345588                    1_GWF-(1,21283) -2.32117222E-02                    1_GWF-(1,15940)
         94          2         44      0.34322021                    1_GWF-(1,21271)  2.43690225E-02                    1_GWF-(1,15940)
         95          2         45      0.34891079                    1_GWF-(1,20578) -2.53710975E-02                    1_GWF-(1,15940)
         96          2         46      0.39096598                    1_GWF-(1,20580) -2.29434143E-02                    1_GWF-(1,15941)
         97          2         47      0.40758795                    1_GWF-(1,20570) -1.96098053E-02                    1_GWF-(1,15940)
         98          2         48     -0.30516919                    1_GWF-(1,26422) -1.47055877E-02                    1_GWF-(1,15941)
         99          2         49     -0.30282717                    1_GWF-(1,20996)  1.17018878E-02                    1_GWF-(1,10652)
        100          2         50     -0.34486033                    1_GWF-(1,20983)  9.33861355E-03                    1_GWF-(1,10651)
        101          3          1      0.21912128                    1_GWF-(1,26673) -5.29247303E-02                    1_GWF-(1,11430)
        102          3          2      0.27104102                    1_GWF-(1,26672)  9.57273972E-03                    1_GWF-(1,10651)
        103          3          3     -0.24686788                    1_GWF-(1,26672)  5.08035104E-02                    1_GWF-(1,11430)
        104          3          4      0.25235142                    1_GWF-(1,26350) -4.03454656E-02                    1_GWF-(1,11430)
        105          3          5     -0.31467265                    1_GWF-(1,20616)  1.19846734E-02                    1_GWF-(1,11430)
        106          3          6     -0.23670674                    1_GWF-(1,20609)  1.79099934E-02                    1_GWF-(1,11430)
        107          3          7     -0.19439183                    1_GWF-(1,26674) -2.76487432E-02                    1_GWF-(1,11430)
        108          3          8     -0.23813297                    1_GWF-(1,26663)  1.71426924E-02                    1_GWF-(1,11430)
        109          3          9      0.17862637                    1_GWF-(1,20700)  6.84232750E-03                    1_GWF-(1,10652)
        110          3         10      0.20995123                    1_GWF-(1,20699) -1.98649235E-02                    1_GWF-(1,11430)
        111          3         11      0.23340584                    1_GWF-(1,20596)  1.70285211E-02                    1_GWF-(1,11430)
        112          3         12     -0.24803288                    1_GWF-(1,26422)  5.29521615E-03                    1_GWF-(1,14801)
        113          3         13      0.20490899                    1_GWF-(1,26422) -8.87599249E-03                    1_GWF-(1,11430)
        114          3         14      0.22927500                    1_GWF-(1,26350)  1.30744751E-02                    1_GWF-(1,11430)
        115          3         15     -0.28421233                    1_GWF-(1,26350) -6.58079059E-03                    1_GWF-(1,11430)
        116          3         16     -0.27251082                    1_GWF-(1,26422) -6.00382622E-03                    1_GWF-(1,11430)
        117          3         17      0.22603317                    1_GWF-(1,20913)  1.21703996E-02                    1_GWF-(1,11430)
        118          3         18     -0.19552499                    1_GWF-(1,26672) -7.08023100E-03                    1_GWF-(1,11430)
        119          3         19      0.17629582                    1_GWF-(1,26672)  5.81639990E-03                    1_GWF-(1,14801)
        120          3         20     -0.18731142                    1_GWF-(1,20911)  7.25951892E-03                    1_GWF-(1,11430)
        121          3         21     -0.18533797                    1_GWF-(1,20914) -7.21992792E-03                    1_GWF-(1,11430)
        122          3         22     -0.18759505                    1_GWF-(1,20229)  5.37057585E-03                    1_GWF-(1,14800)
        123          3         23     -0.13762602                    1_GWF-(1,20571)  5.29540982E-03                    1_GWF-(1,14801)
        124          3         24      0.22142024                    1_GWF-(1,26486) -5.61069386E-03                    1_GWF-(1,11430)
        125          3         25      0.26047156                    1_GWF-(1,26487) -3.22620399E-03                    1_GWF-(1,15221)
        126          3         26      0.19412358                    1_GWF-(1,26486)  4.75137566E-03                    1_GWF-(1,11430)
        127          3         27      0.12005215                    1_GWF-(1,26422)  4.72687075E-03                    1_GWF-(1,14800)
        128          3         28     -0.18708624                    1_GWF-(1,26588)  6.33801717E-03                    1_GWF-(1,14801)
        129          3         29     -0.28594513                    1_GWF-(1,26543)  5.07483598E-03                    1_GWF-(1,14800)
        130          3         30     -0.24009134                    1_GWF-(1,26588) -2.91981147E-03                    1_GWF-(1,11430)
        131          3         31      0.18091255                    1_GWF-(1,26588)  4.87637104E-03                    1_GWF-(1,14801)
        132          3         32     -0.10248191                    1_GWF-(1,26588)  6.56450881E-03                    1_GWF-(1,14800)
        133          3         33     -0.12397434                    1_GWF-(1,26422)  6.63834955E-03                    1_GWF-(1,14801)
        134          3         34      0.14624900                    1_GWF-(1,26622) -5.67564916E-03                    1_GWF-(1,14801)
        135          3         35     -0.12952217                    1_GWF-(1,26622)  3.12893919E-03                    1_GWF-(1,11430)
        136          3         36      0.12593775                    1_GWF-(1,26622) -3.39034400E-03                    1_GWF-(1,14800)
        137          3         37      0.12066035                    1_GWF-(1,26649) -5.34555873E-03                    1_GWF-(1,14801)
        138          3         38  9.88648867E-02                    1_GWF-(1,26622) -5.08371514E-03                    1_GWF-(1,14800)
        139          3         39 -8.73863500E-02                    1_GWF-(1,26666)  3.18118101E-03                    1_GWF-(1,14800)
        140          3         40     -0.14292210                    1_GWF-(1,26665) -1.65003364E-03                    1_GWF-(1,11430)
        141          3         41     -0.10643170                    1_GWF-(1,26666)  2.83457744E-03                    1_GWF-(1,14801)
        142          3         42     -0.10393229                    1_GWF-(1,26665) -5.64281743E-03                    1_GWF-(1,14801)
        143          3         43 -8.79341955E-02                    1_GWF-(1,26217) -6.79422583E-03                    1_GWF-(1,14800)
        144          3         44  8.60319026E-02                    1_GWF-(1,26588) -7.83992098E-03                    1_GWF-(1,14801)
        145          3         45  8.90006864E-02                    1_GWF-(1,26665) -8.84145665E-03                    1_GWF-(1,14800)
        146          3         46      0.11329402                    1_GWF-(1,26648) -1.11578288E-02                    1_GWF-(1,14801)
        147          3         47  8.62689989E-02                    1_GWF-(1,26218) -1.03121653E-02                    1_GWF-(1,14800)
        148          3         48  9.32512335E-02                    1_GWF-(1,26453) -9.92830493E-03                    1_GWF-(1,14801)
        149          3         49     -0.11688965                    1_GWF-(1,26648)  9.53496146E-03                    1_GWF-(1,14801)
        150          3         50     -0.12721827                    1_GWF-(1,26463) -1.02240706E-02                    1_GWF-(1,14801)
        151          4          1 -6.96202273E-02                    1_GWF-(1,26217) -8.12532116E-03                    1_GWF-(1,14800)
        152          4          2 -6.91336946E-02                    1_GWF-(1,26218) -9.45539312E-03                    1_GWF-(1,14801)
        153          4          3 -5.75140451E-02                    1_GWF-(1,26217) -8.72361737E-03                    1_GWF-(1,14800)
        154          4          4  6.70032312E-02                    1_GWF-(1,26453) -1.05567993E-02                    1_GWF-(1,14801)
        155          4          5 -6.47869102E-02                    1_GWF-(1,20226) -1.02398041E-02                    1_GWF-(1,14800)
        156          4          6 -7.27275047E-02                    1_GWF-(1,26218) -8.15889768E-03                    1_GWF-(1,14801)
        157          4          7 -6.22846982E-02                    1_GWF-(1,20211) -6.97595011E-03                    1_GWF-(1,14800)
        158          4          8 -5.41696599E-02                    1_GWF-(1,26665) -5.96284639E-03                    1_GWF-(1,14801)
        159          4          9 -6.01004049E-02                    1_GWF-(1,26666) -3.96875502E-03                    1_GWF-(1,14800)
        160          4         10  6.64286236E-02                    1_GWF-(1,26666) -1.89852969E-03                    1_GWF-(1,14801)
        161          4         11  9.59341626E-02                    1_GWF-(1,26665) -1.38905873E-03                    1_GWF-(1,14801)
        162          4         12  6.24701062E-02                    1_GWF-(1,26666) -4.15713620E-03                    1_GWF-(1,14800)
        163          4         13  5.51483668E-02                    1_GWF-(1,26649) -5.13476456E-03                    1_GWF-(1,14801)
        164          4         14  5.30603960E-02                    1_GWF-(1,26622) -4.20365654E-03                    1_GWF-(1,14800)
        165          4         15 -6.01206068E-02                    1_GWF-(1,26622) -1.90179782E-03                    1_GWF-(1,14801)
        166          4         16 -7.00227158E-02                    1_GWF-(1,26649) -2.47798979E-03                    1_GWF-(1,14801)
        167          4         17 -8.01960140E-02                    1_GWF-(1,26622)  4.21357019E-03                    1_GWF-(1,14801)
        168          4         18 -5.73263278E-02                    1_GWF-(1,26623)  5.22555557E-03                    1_GWF-(1,14800)
        169          4         19 -5.21239962E-02                    1_GWF-(1,26543)  5.04853963E-03                    1_GWF-(1,14801)
        170          4         20 -9.44939546E-02                    1_GWF-(1,26588)  2.44008950E-03                    1_GWF-(1,14800)
        171          4         21 -8.42707958E-02                    1_GWF-(1,26543)  1.59062488E-03                    1_GWF-(1,11430)
        172          4         22  8.91286743E-02                    1_GWF-(1,26543)  3.27254095E-03                    1_GWF-(1,14801)
        173          4         23  6.21287443E-02                    1_GWF-(1,26588) -3.99860872E-03                    1_GWF-(1,14801)
        174          4         24  5.01764566E-02                    1_GWF-(1,26486) -4.08881658E-03                    1_GWF-(1,14800)
        175          4         25  6.50777678E-02                    1_GWF-(1,26487) -2.59073946E-03                    1_GWF-(1,14801)
        176          4         26 -7.73481863E-02                    1_GWF-(1,26487) -1.34481817E-03                    1_GWF-(1,11430)
        177          4         27 -6.89838050E-02                    1_GWF-(1,26420)  3.80746274E-03                    1_GWF-(1,14801)
        178          4         28 -4.81660967E-02                    1_GWF-(1,26487)  4.84729176E-03                    1_GWF-(1,14800)
        179          4         29  5.00633607E-02                    1_GWF-(1,20229)  5.54167386E-03                    1_GWF-(1,14801)
        180          4         30  5.06680926E-02                    1_GWF-(1,20913)  5.42435232E-03                    1_GWF-(1,14800)
        181          4         31  4.54657093E-02                    1_GWF-(1,20912)  5.34195618E-03                    1_GWF-(1,14801)
        182          4         32 -4.40462691E-02                    1_GWF-(1,26672)  5.22841295E-03                    1_GWF-(1,14800)
        183          4         33 -4.89506063E-02                    1_GWF-(1,26665)  6.04779856E-03                    1_GWF-(1,14801)
        184          4         34 -4.72897003E-02                    1_GWF-(1,26422)  5.63540109E-03                    1_GWF-(1,14800)
        185          4         35 -5.64016834E-02                    1_GWF-(1,26350)  4.72500818E-03                    1_GWF-(1,14801)
        186          4         36 -6.29130114E-02                    1_GWF-(1,26422)  3.24563618E-03                    1_GWF-(1,14800)
        187          4         37 -6.28916638E-02                    1_GWF-(1,26350)  1.93196797E-03                    1_GWF-(1,14801)
        188          4         38 -6.09375162E-02                    1_GWF-(1,26422)  1.12627344E-03                    1_GWF-(1,15941)
        189          4         39 -5.36183499E-02                    1_GWF-(1,20587)  2.34744462E-03                    1_GWF-(1,14800)
        190          4         40 -4.93192665E-02                    1_GWF-(1,20592)  4.15498495E-03                    1_GWF-(1,14801)
        191          4         41 -4.86634237E-02                    1_GWF-(1,20612)  4.65972602E-03                    1_GWF-(1,14800)
        192          4         42  3.59563189E-02                    1_GWF-(1,26544)  5.18500033E-03                    1_GWF-(1,14801)
        193          4         43  4.21276848E-02                    1_GWF-(1,26421)  5.54876059E-03                    1_GWF-(1,14800)
        194          4         44  3.81084894E-02                    1_GWF-(1,26348)  5.92117709E-03                    1_GWF-(1,14801)
        195          4         45  5.23855306E-02                    1_GWF-(1,26218)  5.47317988E-03                    1_GWF-(1,14800)
        196          4         46  3.88553151E-02                    1_GWF-(1,20618)  5.76697171E-03                    1_GWF-(1,14801)
        197          4         47  3.32019317E-02                    1_GWF-(1,20738)  5.34431978E-03                    1_GWF-(1,14800)
        198          4         48  2.56812533E-02                    1_GWF-(1,26397)  4.62756042E-03                    1_GWF-(1,14801)
        199          4         49 -2.48562226E-02                    1_GWF-(1,26217)  3.50777428E-03                    1_GWF-(1,14800)
        200          4         50 -3.09270230E-02                    1_GWF-(1,26218)  3.34966403E-03                    1_GWF-(1,14801)
        201          5          1 -1.40022720E-02                    1_GWF-(1,26217)  3.07784472E-03                    1_GWF-(1,14800)
        202          5          2 -2.20897356E-02                    1_GWF-(1,26218)  3.96522560E-03                    1_GWF-(1,14801)
        203          5          3 -2.03436139E-02                    1_GWF-(1,26397)  4.40197257E-03                    1_GWF-(1,14800)
        204          5          4 -2.09342968E-02                    1_GWF-(1,20738)  4.74995266E-03                    1_GWF-(1,14801)
        205          5          5 -2.70887022E-02                    1_GWF-(1,20706)  4.40652810E-03                    1_GWF-(1,14800)
        206          5          6 -3.15758937E-02                    1_GWF-(1,26218)  4.27927346E-03                    1_GWF-(1,14801)
        207          5          7 -2.37209008E-02                    1_GWF-(1,26217)  3.77194943E-03                    1_GWF-(1,14800)
        208          5          8 -2.24580896E-02                    1_GWF-(1,26421)  3.43441448E-03                    1_GWF-(1,14801)
        209          5          9  2.10091109E-02                    1_GWF-(1,20708)  2.98024351E-03                    1_GWF-(1,14800)
        210          5         10  2.59484986E-02                    1_GWF-(1,20614)  2.71400863E-03                    1_GWF-(1,14801)
        211          5         11  2.54337343E-02                    1_GWF-(1,20600)  1.83551800E-03                    1_GWF-(1,14800)
        212          5         12  2.47680385E-02                    1_GWF-(1,26350) -1.07136764E-03                    1_GWF-(1,15940)
        213          5         13  3.53938257E-02                    1_GWF-(1,26422) -1.04749336E-03                    1_GWF-(1,11430)
        214          5         14  3.50615959E-02                    1_GWF-(1,26350)  1.02633060E-03                    1_GWF-(1,14800)
        215          5         15  3.11178010E-02                    1_GWF-(1,26422)  1.68882077E-03                    1_GWF-(1,14801)
        216          5         16  2.61837031E-02                    1_GWF-(1,26350)  2.02936953E-03                    1_GWF-(1,14800)
        217          5         17  2.13791256E-02                    1_GWF-(1,26422)  2.27697362E-03                    1_GWF-(1,14801)
        218          5         18 -1.44156581E-02                    1_GWF-(1,26422)  2.15873460E-03                    1_GWF-(1,14800)
        219          5         19 -1.62868993E-02                    1_GWF-(1,26350)  2.17629721E-03                    1_GWF-(1,14801)
        220          5         20 -1.82816613E-02                    1_GWF-(1,20911)  1.93057886E-03                    1_GWF-(1,14800)
        221          5         21 -2.23420625E-02                    1_GWF-(1,26420)  1.58489465E-03                    1_GWF-(1,14801)
        222          5         22 -2.48781167E-02                    1_GWF-(1,26487)  7.70005932E-04                    1_GWF-(1,14800)
        223          5         23 -2.54731064E-02                    1_GWF-(1,26486)  7.18633008E-04                    1_GWF-(1,11430)
        224          5         24  1.98048275E-02                    1_GWF-(1,26486)  1.37388601E-03                    1_GWF-(1,14801)
        225          5         25  1.47254408E-02                    1_GWF-(1,20216) -1.51972653E-03                    1_GWF-(1,14801)
        226          5         26  1.18974886E-02                    1_GWF-(1,20216) -1.34833244E-03                    1_GWF-(1,14800)
        227          5         27  1.07155850E-02                    1_GWF-(1,26588)  1.03397655E-03                    1_GWF-(1,14800)
        228          5         28 -1.73341552E-02                    1_GWF-(1,26588)  6.67531951E-04                    1_GWF-(1,14801)
        229          5         29 -2.03489263E-02                    1_GWF-(1,26543)  5.60215072E-04                    1_GWF-(1,11430)
        230          5         30 -1.58061372E-02                    1_GWF-(1,26588)  7.44050377E-04                    1_GWF-(1,14800)
        231          5         31  1.55592038E-02                    1_GWF-(1,26588)  1.03383103E-03                    1_GWF-(1,14801)
        232          5         32  9.78306623E-03                    1_GWF-(1,26622)  8.26460114E-04                    1_GWF-(1,14800)
        233          5         33  1.47986671E-02                    1_GWF-(1,26623)  4.75723760E-04                    1_GWF-(1,14801)
        234          5         34  2.06366954E-02                    1_GWF-(1,26622) -5.07413133E-04                    1_GWF-(1,11430)
        235          5         35  1.55237702E-02                    1_GWF-(1,26543) -6.99921813E-04                    1_GWF-(1,14801)
        236          5         36  1.14381103E-02                    1_GWF-(1,26588) -8.29096434E-04                    1_GWF-(1,14800)
        237          5         37  8.41260781E-03                    1_GWF-(1,26665) -8.46671147E-04                    1_GWF-(1,14801)
        238          5         38  1.12082311E-02                    1_GWF-(1,26663) -6.53104584E-04                    1_GWF-(1,14800)
        239          5         39 -1.16534618E-02                    1_GWF-(1,26666)  2.93877355E-04                    1_GWF-(1,11514)
        240          5         40 -1.59051929E-02                    1_GWF-(1,26665) -3.80553006E-04                    1_GWF-(1,11430)
        241          5         41 -1.08329879E-02                    1_GWF-(1,26666) -5.53102381E-04                    1_GWF-(1,14800)
        242          5         42 -8.11761268E-03                    1_GWF-(1,26665) -8.87029379E-04                    1_GWF-(1,14801)
        243          5         43 -1.01470030E-02                    1_GWF-(1,26217) -1.00180349E-03                    1_GWF-(1,14800)
        244          5         44  7.66723081E-03                    1_GWF-(1,20215) -1.14560662E-03                    1_GWF-(1,14801)
        245          5         45  7.54376111E-03                    1_GWF-(1,26665) -1.42267605E-03                    1_GWF-(1,14800)
        246          5         46  8.13781715E-03                    1_GWF-(1,26666) -1.48989960E-03                    1_GWF-(1,14801)
        247          5         47  8.00463217E-03                    1_GWF-(1,26218) -1.19588843E-03                    1_GWF-(1,14800)
        248          5         48  1.07665891E-02                    1_GWF-(1,26217) -1.25449566E-03                    1_GWF-(1,14801)
        249          5         49  1.22030106E-02                    1_GWF-(1,26218) -1.07350249E-03                    1_GWF-(1,14800)
        250          5         50  9.73940535E-03                    1_GWF-(1,26217) -1.13303087E-03                    1_GWF-(1,14801)
        251          6          1 -9.14932668E-03                    1_GWF-(1,26217) -9.70095557E-04                    1_GWF-(1,14800)
        252          6          2 -1.01311834E-02                    1_GWF-(1,26218) -1.07488355E-03                    1_GWF-(1,14801)
        253          6          3 -8.61775782E-03                    1_GWF-(1,26217) -9.77264921E-04                    1_GWF-(1,14800)
        254          6          4  7.06922598E-03                    1_GWF-(1,26217) -1.21933347E-03                    1_GWF-(1,14801)
        255          6          5 -6.36052123E-03                    1_GWF-(1,20226) -1.18279319E-03                    1_GWF-(1,14800)
        256          6          6 -6.98942362E-03                    1_GWF-(1,26218) -9.05744115E-04                    1_GWF-(1,14801)
        257          6          7 -5.71567101E-03                    1_GWF-(1,20212) -7.62377022E-04                    1_GWF-(1,14800)
        258          6          8  5.87713479E-03                    1_GWF-(1,26217) -6.56575889E-04                    1_GWF-(1,14801)
        259          6          9 -5.79920318E-03                    1_GWF-(1,26666) -4.20217481E-04                    1_GWF-(1,14800)
        260          6         10  6.61918450E-03                    1_GWF-(1,26666) -2.96539635E-04                    1_GWF-(1,11430)
        261          6         11  9.80460693E-03                    1_GWF-(1,26665)  1.57433589E-04                    1_GWF-(1,11430)
        262          6         12  7.34380810E-03                    1_GWF-(1,26666) -3.99640552E-04                    1_GWF-(1,14800)
        263          6         13 -6.87992762E-03                    1_GWF-(1,26666) -5.15040301E-04                    1_GWF-(1,14801)
        264          6         14 -4.52029251E-03                    1_GWF-(1,26665) -5.14754553E-04                    1_GWF-(1,14800)
        265          6         15  6.30254971E-03                    1_GWF-(1,26649) -4.22979323E-04                    1_GWF-(1,14801)
        266          6         16 -7.89435618E-03                    1_GWF-(1,26649) -3.28488723E-04                    1_GWF-(1,11430)
        267          6         17 -1.02535852E-02                    1_GWF-(1,26622)  2.46004060E-04                    1_GWF-(1,14801)
        268          6         18 -7.44052909E-03                    1_GWF-(1,26623)  4.60308733E-04                    1_GWF-(1,14800)
        269          6         19  6.79597967E-03                    1_GWF-(1,26623)  5.66772684E-04                    1_GWF-(1,14801)
        270          6         20 -7.12400610E-03                    1_GWF-(1,26588)  3.90796083E-04                    1_GWF-(1,14800)
        271          6         21 -7.45973613E-03                    1_GWF-(1,26589)  3.14191005E-04                    1_GWF-(1,11430)
        272          6         22  8.17096577E-03                    1_GWF-(1,26543) -2.54874488E-04                    1_GWF-(1,14800)
        273          6         23  7.31996175E-03                    1_GWF-(1,26588) -4.44784440E-04                    1_GWF-(1,14801)
        274          6         24 -4.88028590E-03                    1_GWF-(1,26588) -5.65732732E-04                    1_GWF-(1,14800)
        275          6         25  4.67807079E-03                    1_GWF-(1,26588) -6.02220500E-04                    1_GWF-(1,14801)
        276          6         26  8.18251770E-03                    1_GWF-(1,26543)  5.95417673E-04                    1_GWF-(1,14801)
        277          6         27  7.40027159E-03                    1_GWF-(1,26544)  3.29395120E-04                    1_GWF-(1,11430)
        278          6         28  9.00652173E-03                    1_GWF-(1,26486)  2.40788423E-04                    1_GWF-(1,14800)
        279          6         29  8.20631333E-03                    1_GWF-(1,26487)  5.37091764E-04                    1_GWF-(1,14801)
        280          6         30  6.53792812E-03                    1_GWF-(1,26420)  6.22157910E-04                    1_GWF-(1,14800)
        281          6         31  4.50258344E-03                    1_GWF-(1,20911)  6.48360913E-04                    1_GWF-(1,14801)
        282          6         32 -4.75694696E-03                    1_GWF-(1,26672)  5.96069296E-04                    1_GWF-(1,14800)
        283          6         33 -4.44818654E-03                    1_GWF-(1,26665)  5.93022958E-04                    1_GWF-(1,14801)
        284          6         34 -5.27794893E-03                    1_GWF-(1,26422)  5.18469955E-04                    1_GWF-(1,14800)
        285          6         35 -6.78089878E-03                    1_GWF-(1,26350)  4.41122669E-04                    1_GWF-(1,14801)
        286          6         36 -7.90169924E-03                    1_GWF-(1,26422)  2.93994156E-04                    1_GWF-(1,14800)
        287          6         37 -8.59554898E-03                    1_GWF-(1,26350) -3.05724233E-04                    1_GWF-(1,11430)
        288          6         38 -8.42439728E-03                    1_GWF-(1,26422)  2.33032922E-04                    1_GWF-(1,15941)
        289          6         39 -6.29242793E-03                    1_GWF-(1,20590)  3.05161683E-04                    1_GWF-(1,14800)
        290          6         40 -5.80424844E-03                    1_GWF-(1,20592)  4.63177175E-04                    1_GWF-(1,14801)
        291          6         41 -5.59585603E-03                    1_GWF-(1,20614)  4.96593314E-04                    1_GWF-(1,14800)
        292          6         42  3.87659203E-03                    1_GWF-(1,26420)  5.48366524E-04                    1_GWF-(1,14801)
        293          6         43  5.32188404E-03                    1_GWF-(1,26421)  5.68780953E-04                    1_GWF-(1,14800)
        294          6         44  4.68289713E-03                    1_GWF-(1,26348)  6.01119546E-04                    1_GWF-(1,14801)
        295          6         45  5.12755656E-03                    1_GWF-(1,26218)  5.69988869E-04                    1_GWF-(1,14800)
        296          6         46  3.92822149E-03                    1_GWF-(1,20618)  6.06413668E-04                    1_GWF-(1,14801)
        297          6         47  3.05265419E-03                    1_GWF-(1,20738)  5.61073485E-04                    1_GWF-(1,14800)
        298          6         48  2.72883994E-03                    1_GWF-(1,26397)  4.95848679E-04                    1_GWF-(1,14801)
        299          6         49 -2.36076439E-03                    1_GWF-(1,26419)  3.81724453E-04                    1_GWF-(1,14800)
        300          6         50 -2.38163566E-03                    1_GWF-(1,26218)  3.77438190E-04                    1_GWF-(1,14801)
        301          7          1 -1.57109038E-03                    1_GWF-(1,26217) -3.58719321E-04                    1_GWF-(1,14801)
        302          7          2 -2.54097907E-03                    1_GWF-(1,26218)  4.40964829E-04                    1_GWF-(1,14801)
        303          7          3 -2.50174116E-03                    1_GWF-(1,26589)  4.88185850E-04                    1_GWF-(1,14800)
        304          7          4 -2.60921332E-03                    1_GWF-(1,26486)  5.19963838E-04                    1_GWF-(1,14801)
        305          7          5 -2.78719568E-03                    1_GWF-(1,26544)  4.87512555E-04                    1_GWF-(1,14800)
        306          7          6 -3.58531336E-03                    1_GWF-(1,26218)  4.96488887E-04                    1_GWF-(1,14801)
        307          7          7 -2.92407656E-03                    1_GWF-(1,26217)  4.48915711E-04                    1_GWF-(1,14800)
        308          7          8 -3.05141377E-03                    1_GWF-(1,26421)  4.09183050E-04                    1_GWF-(1,14801)
        309          7          9  2.32757171E-03                    1_GWF-(1,20708)  3.54196602E-04                    1_GWF-(1,14800)
        310          7         10  2.97084490E-03                    1_GWF-(1,20614)  3.21784850E-04                    1_GWF-(1,14801)
        311          7         11  2.92770835E-03                    1_GWF-(1,20611)  2.13676195E-04                    1_GWF-(1,14800)
        312          7         12  3.17584018E-03                    1_GWF-(1,26544) -1.25760059E-04                    1_GWF-(1,15940)
        313          7         13  4.35657290E-03                    1_GWF-(1,26422) -1.47904053E-04                    1_GWF-(1,11430)
        314          7         14  4.31685197E-03                    1_GWF-(1,26350)  1.48948698E-04                    1_GWF-(1,11430)
        315          7         15  3.81783213E-03                    1_GWF-(1,26422)  1.94234020E-04                    1_GWF-(1,14801)
        316          7         16  3.12387865E-03                    1_GWF-(1,26350)  2.18055733E-04                    1_GWF-(1,14800)
        317          7         17  2.82182544E-03                    1_GWF-(1,26486)  2.14880922E-04                    1_GWF-(1,14801)
        318          7         18  2.23030569E-03                    1_GWF-(1,26544)  1.24127524E-04                    1_GWF-(1,14800)
        319          7         19  2.85830602E-03                    1_GWF-(1,26622) -1.19650664E-04                    1_GWF-(1,11430)
        320          7         20  2.72931511E-03                    1_GWF-(1,26623)  1.87529615E-04                    1_GWF-(1,14801)
        321          7         21 -2.28924963E-03                    1_GWF-(1,26422)  2.19458801E-04                    1_GWF-(1,14800)
        322          7         22 -2.01340641E-03                    1_GWF-(1,20229)  2.26148975E-04                    1_GWF-(1,14801)
        323          7         23 -1.51696522E-03                    1_GWF-(1,26422)  2.27595628E-04                    1_GWF-(1,14800)
        324          7         24 -1.34071104E-03                    1_GWF-(1,22914)  2.17995752E-04                    1_GWF-(1,14801)
        325          7         25  1.70466379E-03                    1_GWF-(1,20218) -1.85714389E-04                    1_GWF-(1,14801)
        326          7         26  1.22177344E-03                    1_GWF-(1,20216) -1.56366316E-04                    1_GWF-(1,14800)
        327          7         27  1.04040251E-03                    1_GWF-(1,26350) -1.17852303E-04                    1_GWF-(1,14801)
        328          7         28  1.38959972E-03                    1_GWF-(1,26487) -6.64677447E-05                    1_GWF-(1,14800)
        329          7         29 -1.85096045E-03                    1_GWF-(1,26487)  8.63450618E-05                    1_GWF-(1,11430)
        330          7         30  1.92272506E-03                    1_GWF-(1,26487)  9.03796336E-05                    1_GWF-(1,14800)
        331          7         31 -1.80881353E-03                    1_GWF-(1,26487)  1.19482710E-04                    1_GWF-(1,14801)
        332          7         32  1.16268002E-03                    1_GWF-(1,26648)  9.15173341E-05                    1_GWF-(1,14800)
        333          7         33  1.50644495E-03                    1_GWF-(1,26649)  5.21775398E-05                    1_GWF-(1,14801)
        334          7         34  1.96017936E-03                    1_GWF-(1,26622) -6.28291576E-05                    1_GWF-(1,11430)
        335          7         35  1.85088782E-03                    1_GWF-(1,26543) -7.42749776E-05                    1_GWF-(1,14801)
        336          7         36  1.42694322E-03                    1_GWF-(1,26588) -9.17419679E-05                    1_GWF-(1,14800)
        337          7         37 -1.00195725E-03                    1_GWF-(1,26588) -9.44682239E-05                    1_GWF-(1,14801)
        338          7         38  1.14131913E-03                    1_GWF-(1,26663) -7.70917313E-05                    1_GWF-(1,14800)
        339          7         39 -1.27041687E-03                    1_GWF-(1,26666) -3.86449912E-05                    1_GWF-(1,14801)
        340          7         40 -1.69153161E-03                    1_GWF-(1,26665) -5.12242304E-05                    1_GWF-(1,11430)
        341          7         41  1.17329366E-03                    1_GWF-(1,26665) -6.02493039E-05                    1_GWF-(1,14800)
        342          7         42  9.22042543E-04                    1_GWF-(1,26666) -9.80347436E-05                    1_GWF-(1,14801)
        343          7         43 -1.07635089E-03                    1_GWF-(1,26217) -1.09857516E-04                    1_GWF-(1,14800)
        344          7         44  9.80248652E-04                    1_GWF-(1,20216) -1.24109535E-04                    1_GWF-(1,14801)
        345          7         45  9.76943252E-04                    1_GWF-(1,20917) -1.50800069E-04                    1_GWF-(1,14800)
        346          7         46  8.25078715E-04                    1_GWF-(1,20232) -1.52495024E-04                    1_GWF-(1,14801)
        347          7         47  8.61724330E-04                    1_GWF-(1,26218) -1.20474952E-04                    1_GWF-(1,14800)
        348          7         48  1.29701480E-03                    1_GWF-(1,26217) -1.30815973E-04                    1_GWF-(1,14801)
        349          7         49  1.45116284E-03                    1_GWF-(1,26218) -1.17646094E-04                    1_GWF-(1,14800)
        350          7         50  1.18417757E-03                    1_GWF-(1,26217) -1.27795412E-04                    1_GWF-(1,14801)
        351          8          1 -6.32573927E-03                    1_GWF-(1,11439) -7.93593198E-05                    1_GWF-(1,14800)
        352          8          2 -2.33086975E-03                    1_GWF-(1,11440) -1.21945315E-04                    1_GWF-(1,14801)
        353          8          3  2.50106800E-03                    1_GWF-(1,11439)  1.16543814E-04                    1_GWF-(1,14801)
        354          8          4 -1.55253574E-03                    1_GWF-(1,11439) -1.36233494E-04                    1_GWF-(1,14801)
        355          8          5 -2.54868313E-03                    1_GWF-(1,11440) -1.22339438E-04                    1_GWF-(1,14800)
        356          8          6  1.94287978E-03                    1_GWF-(1,11440) -1.03110808E-04                    1_GWF-(1,14801)
        357          8          7  1.13207072E-03                    1_GWF-(1,11441) -9.29745305E-05                    1_GWF-(1,14800)
        358          8          8  7.99962437E-04                    1_GWF-(1,15763) -9.06972834E-05                    1_GWF-(1,14801)
        359          8          9  1.03970433E-03                    1_GWF-(1,11440) -5.52698039E-05                    1_GWF-(1,14800)
        360          8         10  8.48629040E-04                    1_GWF-(1,11482) -2.73418341E-05                    1_GWF-(1,14801)
        361          8         11  1.06331350E-03                    1_GWF-(1,26665) -1.75413765E-05                    1_GWF-(1,15940)
        362          8         12 -9.02981744E-04                    1_GWF-(1,26665) -4.11132659E-05                    1_GWF-(1,14800)
        363          8         13 -7.37415191E-04                    1_GWF-(1,26666) -5.79698392E-05                    1_GWF-(1,14801)
        364          8         14 -7.38164531E-04                    1_GWF-(1,15759) -6.38125520E-05                    1_GWF-(1,14800)
        365          8         15 -7.64566228E-04                    1_GWF-(1,26350) -5.63845970E-05                    1_GWF-(1,14801)
        366          8         16  8.19336761E-04                    1_GWF-(1,26622) -3.10727469E-05                    1_GWF-(1,11430)
        367          8         17 -1.08022021E-03                    1_GWF-(1,26622)  2.45049047E-05                    1_GWF-(1,14801)
        368          8         18 -9.26234052E-04                    1_GWF-(1,26649)  5.18637938E-05                    1_GWF-(1,14800)
        369          8         19 -9.36925905E-04                    1_GWF-(1,11428)  6.66984253E-05                    1_GWF-(1,14801)
        370          8         20  8.53128988E-04                    1_GWF-(1,11428)  5.16566045E-05                    1_GWF-(1,14800)
        371          8         21 -8.39581478E-04                    1_GWF-(1,26589) -2.27200321E-05                    1_GWF-(1,14800)
        372          8         22 -8.53274795E-04                    1_GWF-(1,26588) -2.87364461E-05                    1_GWF-(1,11430)
        373          8         23  8.82615830E-04                    1_GWF-(1,26588) -5.25386807E-05                    1_GWF-(1,14801)
        374          8         24 -5.89803968E-04                    1_GWF-(1,11438) -6.92525611E-05                    1_GWF-(1,14800)
        375          8         25 -7.98159310E-04                    1_GWF-(1,11428)  7.31457049E-05                    1_GWF-(1,14800)
        376          8         26  8.98110089E-04                    1_GWF-(1,26543)  7.66794085E-05                    1_GWF-(1,14801)
        377          8         27  8.30245581E-04                    1_GWF-(1,26588)  5.65814147E-05                    1_GWF-(1,14800)
        378          8         28  9.77797991E-04                    1_GWF-(1,26486) -2.10582747E-05                    1_GWF-(1,11430)
        379          8         29  9.65945013E-04                    1_GWF-(1,26487)  5.30126390E-05                    1_GWF-(1,14801)
        380          8         30  8.34284132E-04                    1_GWF-(1,26420)  7.58967671E-05                    1_GWF-(1,14800)
        381          8         31 -7.15416339E-04                    1_GWF-(1,11428)  8.05947170E-05                    1_GWF-(1,14801)
        382          8         32 -5.91128574E-04                    1_GWF-(1,26623)  7.25936191E-05                    1_GWF-(1,14800)
        383          8         33 -4.37007508E-04                    1_GWF-(1,26665)  7.03943807E-05                    1_GWF-(1,14801)
        384          8         34 -6.66219632E-04                    1_GWF-(1,11428)  6.04451683E-05                    1_GWF-(1,14800)
        385          8         35 -7.83871886E-04                    1_GWF-(1,26350)  5.32552505E-05                    1_GWF-(1,14801)
        386          8         36 -9.85185909E-04                    1_GWF-(1,26422)  3.82572758E-05                    1_GWF-(1,14800)
        387          8         37 -1.04062224E-03                    1_GWF-(1,26350) -2.27124866E-05                    1_GWF-(1,11430)
        388          8         38 -1.03477123E-03                    1_GWF-(1,26422)  2.52822387E-05                    1_GWF-(1,15941)
        389          8         39 -7.69812149E-04                    1_GWF-(1,26350)  3.36408341E-05                    1_GWF-(1,14800)
        390          8         40 -6.14802714E-04                    1_GWF-(1,20592)  5.11403087E-05                    1_GWF-(1,14801)
        391          8         41 -6.12459211E-04                    1_GWF-(1,20614)  5.73585318E-05                    1_GWF-(1,14800)
        392          8         42  5.07238186E-04                    1_GWF-(1,26350)  6.41999229E-05                    1_GWF-(1,14801)
        393          8         43  6.31551692E-04                    1_GWF-(1,26421)  6.54113546E-05                    1_GWF-(1,14800)
        394          8         44  5.62959227E-04                    1_GWF-(1,26350)  6.86533297E-05                    1_GWF-(1,14801)
        395          8         45  5.41008693E-04                    1_GWF-(1,26218)  6.45282405E-05                    1_GWF-(1,14800)
        396          8         46  3.96056835E-04                    1_GWF-(1,26544)  6.54973246E-05                    1_GWF-(1,14801)
        397          8         47  3.52906656E-04                    1_GWF-(1,11428)  5.84098351E-05                    1_GWF-(1,14800)
        398          8         48 -3.02981300E-04                    1_GWF-(1,11428)  5.48756873E-05                    1_GWF-(1,14801)
        399          8         49  2.80269133E-04                    1_GWF-(1,26588)  4.47861445E-05                    1_GWF-(1,14800)
        400          8         50  2.42025648E-04                    1_GWF-(1,11428) -4.40074835E-05                    1_GWF-(1,14800)
        401          9          1 -3.01501961E-04                    1_GWF-(1,11428)  4.68196491E-05                    1_GWF-(1,14800)
        402          9          2 -2.84604012E-04                    1_GWF-(1,26218)  4.96386044E-05                    1_GWF-(1,14801)
        403          9          3 -3.11652693E-04                    1_GWF-(1,26589)  5.20295500E-05                    1_GWF-(1,14800)
        404          9          4 -3.55414148E-04                    1_GWF-(1,11428)  5.63209434E-05                    1_GWF-(1,14801)
        405          9          5 -3.59772668E-04                    1_GWF-(1,26544)  5.68802347E-05                    1_GWF-(1,14800)
        406          9          6 -4.11954210E-04                    1_GWF-(1,26218)  5.82476837E-05                    1_GWF-(1,14801)
        407          9          7 -3.58791800E-04                    1_GWF-(1,26348)  5.18191462E-05                    1_GWF-(1,14800)
        408          9          8 -3.76496630E-04                    1_GWF-(1,26421)  4.68666767E-05                    1_GWF-(1,14801)
        409          9          9  2.64105078E-04                    1_GWF-(1,20708)  3.98018847E-05                    1_GWF-(1,14800)
        410          9         10  3.16199395E-04                    1_GWF-(1,20614)  2.92729200E-05                    1_GWF-(1,14801)
        411          9         11  4.05457173E-04                    1_GWF-(1,26486)  1.57555534E-05                    1_GWF-(1,10650)
        412          9         12  3.73977890E-04                    1_GWF-(1,26649)  2.31493970E-05                    1_GWF-(1,14800)
        413          9         13  3.50608673E-04                    1_GWF-(1,26543)  2.81208490E-05                    1_GWF-(1,14801)
        414          9         14  4.26278192E-04                    1_GWF-(1,26422)  1.96881723E-05                    1_GWF-(1,10652)
        415          9         15  4.33455398E-04                    1_GWF-(1,26350) -1.33493789E-05                    1_GWF-(1,15940)
        416          9         16  4.67911886E-04                    1_GWF-(1,26422)  1.02569305E-05                    1_GWF-(1,15940)
        417          9         17  3.89051690E-04                    1_GWF-(1,26350)  1.33296509E-05                    1_GWF-(1,14800)
        418          9         18  2.55599499E-04                    1_GWF-(1,26422)  2.11297036E-05                    1_GWF-(1,14801)
        419          9         19 -3.02277199E-04                    1_GWF-(1,26422)  2.65444919E-05                    1_GWF-(1,14800)
        420          9         20  2.81451949E-04                    1_GWF-(1,26622)  2.29370198E-05                    1_GWF-(1,14801)
        421          9         21 -3.40981790E-04                    1_GWF-(1,26487)  8.07796197E-06                    1_GWF-(1,10652)
        422          9         22 -3.25994378E-04                    1_GWF-(1,26486)  1.18576416E-05                    1_GWF-(1,14800)
        423          9         23 -2.39881274E-04                    1_GWF-(1,26487)  2.29490741E-05                    1_GWF-(1,14801)
        424          9         24 -2.37392703E-04                    1_GWF-(1,26486)  2.67675750E-05                    1_GWF-(1,14800)
        425          9         25 -2.23843142E-04                    1_GWF-(1,11428)  2.51537709E-05                    1_GWF-(1,14801)
        426          9         26 -1.63184434E-04                    1_GWF-(1,26588) -2.29910156E-05                    1_GWF-(1,14801)
        427          9         27 -1.37180601E-04                    1_GWF-(1,26589) -1.81917422E-05                    1_GWF-(1,14800)
        428          9         28 -1.95599395E-04                    1_GWF-(1,26588) -1.25877694E-05                    1_GWF-(1,14801)
        429          9         29 -2.30432765E-04                    1_GWF-(1,26543) -2.80439041E-06                    1_GWF-(1,11514)
        430          9         30 -1.95964942E-04                    1_GWF-(1,26588)  1.06561527E-05                    1_GWF-(1,14801)
        431          9         31  2.49010079E-04                    1_GWF-(1,26588)  1.64039231E-05                    1_GWF-(1,14800)
        432          9         32  1.72730538E-04                    1_GWF-(1,26543)  1.63737902E-05                    1_GWF-(1,14801)
        433          9         33  1.21940567E-04                    1_GWF-(1,11428)  1.40334499E-05                    1_GWF-(1,14800)
        434          9         34 -1.88525036E-04                    1_GWF-(1,11428)  1.35669998E-05                    1_GWF-(1,14801)
        435          9         35  1.01949933E-04                    1_GWF-(1,11428) -1.52824993E-05                    1_GWF-(1,14801)
        436          9         36  1.29050384E-04                    1_GWF-(1,26218) -1.32637887E-05                    1_GWF-(1,14800)
        437          9         37 -1.31539612E-04                    1_GWF-(1,11428) -1.15537064E-05                    1_GWF-(1,14801)
        438          9         38  1.31437196E-04                    1_GWF-(1,26663) -1.01692776E-05                    1_GWF-(1,14800)
        439          9         39 -1.28861507E-04                    1_GWF-(1,26663) -7.18161355E-06                    1_GWF-(1,14801)
        440          9         40 -1.56017571E-04                    1_GWF-(1,26665) -4.29591530E-06                    1_GWF-(1,11430)
        441          9         41  1.26887725E-04                    1_GWF-(1,26665) -5.39157686E-06                    1_GWF-(1,14800)
        442          9         42  1.14638141E-04                    1_GWF-(1,26666) -1.12815796E-05                    1_GWF-(1,14801)
        443          9         43 -1.11131504E-04                    1_GWF-(1,26217) -1.27971108E-05                    1_GWF-(1,14800)
        444          9         44  1.18490510E-04                    1_GWF-(1,20216) -1.44936332E-05                    1_GWF-(1,14801)
        445          9         45 -1.37032692E-04                    1_GWF-(1,11440) -1.64829770E-05                    1_GWF-(1,14800)
        446          9         46  1.78037436E-04                    1_GWF-(1,11440) -1.68540641E-05                    1_GWF-(1,14801)
        447          9         47  1.08635644E-04                    1_GWF-(1,11439)  1.41172302E-05                    1_GWF-(1,14801)
        448          9         48 -1.97113972E-04                    1_GWF-(1,11439) -1.49659990E-05                    1_GWF-(1,14801)
        449          9         49  1.53777330E-04                    1_GWF-(1,26218) -1.08795963E-05                    1_GWF-(1,14800)
        450          9         50  3.26683187E-04                    1_GWF-(1,11439) -1.29190675E-05                    1_GWF-(1,14801)
        451         10          1 -3.43965098E-04                    1_GWF-(1,11439) -9.71305042E-06                    1_GWF-(1,14800)
        452         10          2 -1.22545809E-04                    1_GWF-(1,26218) -1.01454314E-05                    1_GWF-(1,14801)
        453         10          3  1.81708876E-04                    1_GWF-(1,11439)  3.65421159E-06                    1_GWF-(1,11430)
        454         10          4  1.28487135E-04                    1_GWF-(1,26543) -4.84445206E-06                    1_GWF-(1,14800)
        455         10          5 -1.38251624E-04                    1_GWF-(1,11440) -1.10749594E-05                    1_GWF-(1,14801)
        456         10          6 -9.51326287E-05                    1_GWF-(1,20232) -1.20066915E-05                    1_GWF-(1,14800)
        457         10          7  1.10820995E-04                    1_GWF-(1,11440) -1.18291367E-05                    1_GWF-(1,14801)
        458         10          8 -1.15750781E-04                    1_GWF-(1,11440) -1.10359846E-05                    1_GWF-(1,14800)
        459         10          9  1.04090243E-04                    1_GWF-(1,26217) -1.03185580E-05                    1_GWF-(1,14801)
        460         10         10 -7.78959486E-05                    1_GWF-(1,11428) -9.21367728E-06                    1_GWF-(1,14800)
        461         10         11  6.55106535E-05                    1_GWF-(1,26420) -8.05305602E-06                    1_GWF-(1,14801)
        462         10         12  8.80183535E-05                    1_GWF-(1,26622) -5.22244300E-06                    1_GWF-(1,14800)
        463         10         13 -1.08137692E-04                    1_GWF-(1,26487)  2.26593675E-06                     1_GWF-(1,9291)
        464         10         14  1.06096112E-04                    1_GWF-(1,26622) -4.88032399E-06                    1_GWF-(1,14801)
        465         10         15  9.64782212E-05                    1_GWF-(1,26649) -7.35559700E-06                    1_GWF-(1,14800)
        466         10         16 -9.33673076E-05                    1_GWF-(1,26350) -7.19530651E-06                    1_GWF-(1,14801)
        467         10         17  1.04943420E-04                    1_GWF-(1,26665)  4.52744649E-06                    1_GWF-(1,14801)
        468         10         18 -1.18234452E-04                    1_GWF-(1,26665)  3.32463350E-06                    1_GWF-(1,11430)
        469         10         19 -1.18412695E-04                    1_GWF-(1,26666)  4.86416220E-06                    1_GWF-(1,14800)
        470         10         20 -1.13975520E-04                    1_GWF-(1,26665)  7.72781530E-06                    1_GWF-(1,14801)
        471         10         21  1.06383732E-04                    1_GWF-(1,11428) -8.81037898E-06                    1_GWF-(1,14801)
        472         10         22 -1.06473042E-04                    1_GWF-(1,11428) -9.27005940E-06                    1_GWF-(1,14800)
        473         10         23  5.79839969E-05                    1_GWF-(1,15754) -9.12305400E-06                    1_GWF-(1,14801)
        474         10         24  6.81694855E-05                    1_GWF-(1,11428)  9.05459565E-06                    1_GWF-(1,14801)
        475         10         25 -1.04246734E-04                    1_GWF-(1,11428)  9.33380003E-06                    1_GWF-(1,14800)
        476         10         26  8.68136943E-05                    1_GWF-(1,26588)  1.05485973E-05                    1_GWF-(1,14801)
        477         10         27  9.76304612E-05                    1_GWF-(1,26589)  9.98271734E-06                    1_GWF-(1,14800)
        478         10         28  9.69830004E-05                    1_GWF-(1,26588)  7.57774113E-06                    1_GWF-(1,14801)
        479         10         29 -9.28135458E-05                    1_GWF-(1,26588)  3.28539944E-06                    1_GWF-(1,14800)
        480         10         30 -9.80400713E-05                    1_GWF-(1,26589)  4.00904403E-06                    1_GWF-(1,14800)
        481         10         31 -1.14904021E-04                    1_GWF-(1,26588)  7.57327717E-06                    1_GWF-(1,14801)
        482         10         32 -7.64468253E-05                    1_GWF-(1,26589)  8.20634404E-06                    1_GWF-(1,14800)
        483         10         33 -6.37505166E-05                    1_GWF-(1,26588)  8.38398585E-06                    1_GWF-(1,14801)
        484         10         34 -7.48280553E-05                    1_GWF-(1,11428)  7.23343426E-06                    1_GWF-(1,14800)
        485         10         35 -9.39041042E-05                    1_GWF-(1,26350)  6.23823215E-06                    1_GWF-(1,14801)
        486         10         36 -1.19101977E-04                    1_GWF-(1,26422)  4.57880651E-06                    1_GWF-(1,14800)
        487         10         37 -1.27722184E-04                    1_GWF-(1,26350)  2.77844766E-06                    1_GWF-(1,14801)
        488         10         38 -1.17646103E-04                    1_GWF-(1,26422)  2.81936970E-06                    1_GWF-(1,15941)
        489         10         39 -9.03722402E-05                    1_GWF-(1,26544)  4.07777579E-06                    1_GWF-(1,14800)
        490         10         40 -8.66687978E-05                    1_GWF-(1,26486)  5.64544584E-06                    1_GWF-(1,14801)
        491         10         41 -8.18964102E-05                    1_GWF-(1,26623)  3.78313755E-06                    1_GWF-(1,14800)
        492         10         42  7.28871796E-05                    1_GWF-(1,26487)  2.13313742E-06                    1_GWF-(1,11430)
        493         10         43  9.99517881E-05                    1_GWF-(1,26420)  4.65262398E-06                    1_GWF-(1,14801)
        494         10         44  1.01054536E-04                    1_GWF-(1,26422)  6.28515342E-06                    1_GWF-(1,14800)
        495         10         45  8.02202970E-05                    1_GWF-(1,26350)  7.22496883E-06                    1_GWF-(1,14801)
        496         10         46  5.38750861E-05                    1_GWF-(1,26588)  6.78115271E-06                    1_GWF-(1,14800)
        497         10         47  4.65987027E-05                    1_GWF-(1,26623)  6.44880318E-06                    1_GWF-(1,14801)
        498         10         48  4.63622470E-05                    1_GWF-(1,26582)  6.05181771E-06                    1_GWF-(1,14800)
        499         10         49 -4.12436274E-05                    1_GWF-(1,11428)  5.83263824E-06                    1_GWF-(1,14801)
        500         10         50  3.68515269E-05                    1_GWF-(1,11428) -4.86066706E-06                    1_GWF-(1,14801)
        501         11          1 -3.20872900E-05                    1_GWF-(1,26218)  9.28149960E-06                    1_GWF-(1,14801)
        502         11          2 -3.19099237E-05                    1_GWF-(1,26589)  6.66061904E-06                    1_GWF-(1,14800)
        503         11          3 -4.34049518E-05                    1_GWF-(1,26486)  5.27775990E-06                    1_GWF-(1,14801)
        504         11          4 -5.49282921E-05                    1_GWF-(1,26487)  4.21556674E-06                    1_GWF-(1,14800)
        505         11          5 -7.32713649E-05                    1_GWF-(1,26486)  2.85600391E-06                    1_GWF-(1,14801)
        506         11          6 -5.83154894E-05                    1_GWF-(1,26487)  2.95626332E-06                    1_GWF-(1,14801)
        507         11          7 -5.53634404E-05                    1_GWF-(1,26420)  4.48615505E-06                    1_GWF-(1,14800)
        508         11          8 -5.18397609E-05                    1_GWF-(1,26421)  5.27505340E-06                    1_GWF-(1,14801)
        509         11          9 -4.26659672E-05                    1_GWF-(1,26420)  5.45853263E-06                    1_GWF-(1,14800)
        510         11         10 -4.46373104E-05                    1_GWF-(1,11428)  5.11125968E-06                    1_GWF-(1,14801)
        511         11         11  3.62800494E-05                    1_GWF-(1,20603)  3.41897681E-06                    1_GWF-(1,14800)
        512         11         12  4.61916415E-05                    1_GWF-(1,26544)  1.96472856E-06                    1_GWF-(1,14801)
        513         11         13  5.86748037E-05                    1_GWF-(1,26422) -1.32485528E-06                    1_GWF-(1,15941)
        514         11         14  5.63533174E-05                    1_GWF-(1,26350)  1.93528897E-06                    1_GWF-(1,10652)
        515         11         15  4.85513860E-05                    1_GWF-(1,26486)  2.19705384E-06                    1_GWF-(1,14801)
        516         11         16  4.45745084E-05                    1_GWF-(1,26487)  1.52699046E-06                    1_GWF-(1,14800)
        517         11         17  3.71078909E-05                    1_GWF-(1,26420)  9.64326557E-07                    1_GWF-(1,15941)
        518         11         18  2.92155783E-05                    1_GWF-(1,26422)  2.14877481E-06                    1_GWF-(1,10651)
        519         11         19 -3.66229643E-05                    1_GWF-(1,26422)  2.92769048E-06                    1_GWF-(1,14800)
        520         11         20  3.67126885E-05                    1_GWF-(1,26623)  3.62592831E-06                    1_GWF-(1,14801)
        521         11         21 -3.10804646E-05                    1_GWF-(1,26422)  3.46764961E-06                    1_GWF-(1,14800)
        522         11         22 -3.15262960E-05                    1_GWF-(1,11428)  3.16774911E-06                    1_GWF-(1,14801)
        523         11         23  2.77843751E-05                    1_GWF-(1,26665)  2.46870054E-06                    1_GWF-(1,14800)
        524         11         24 -3.07814116E-05                    1_GWF-(1,26588)  1.09463352E-06                    1_GWF-(1,14801)
        525         11         25 -3.38213518E-05                    1_GWF-(1,26543)  1.02857356E-06                    1_GWF-(1,10651)
        526         11         26 -2.91632552E-05                    1_GWF-(1,26622) -2.07171275E-06                    1_GWF-(1,14801)
        527         11         27 -1.96843707E-05                    1_GWF-(1,26666) -2.50210855E-06                    1_GWF-(1,14800)
        528         11         28 -2.75807470E-05                    1_GWF-(1,11428) -2.89482898E-06                    1_GWF-(1,14801)
        529         11         29  1.98345960E-05                    1_GWF-(1,11428) -2.69864846E-06                    1_GWF-(1,14800)
        530         11         30  1.67053243E-05                    1_GWF-(1,26589)  2.17160530E-06                    1_GWF-(1,14800)
[...]
        534         11         34 -2.11735198E-05                    1_GWF-(1,11428) -1.54971567E-06                    1_GWF-(1,14800)
        535         11         35 -1.67547460E-05                    1_GWF-(1,26665) -1.97812266E-06                    1_GWF-(1,14801)
        536         11         36  1.69027018E-05                    1_GWF-(1,26422) -1.78769783E-06                    1_GWF-(1,14800)
        537         11         37 -1.88681317E-05                    1_GWF-(1,11428) -1.70770523E-06                    1_GWF-(1,14801)
        538         11         38  1.57234720E-05                    1_GWF-(1,11428) -1.71995953E-06                    1_GWF-(1,14800)
        539         11         39 -1.26068698E-05                    1_GWF-(1,20225) -1.70495895E-06                    1_GWF-(1,14801)
        540         11         40 -1.15733352E-05                    1_GWF-(1,11428) -1.52210699E-06                    1_GWF-(1,14800)
        541         11         41  1.62695970E-05                    1_GWF-(1,11428) -1.51587079E-06                    1_GWF-(1,14801)
        542         11         42  1.39874932E-05                    1_GWF-(1,26586) -1.39350615E-06                    1_GWF-(1,14800)
        543         11         43  1.79186008E-05                    1_GWF-(1,26623) -8.13517594E-07                    1_GWF-(1,14801)
        544         11         44  1.68269724E-05                    1_GWF-(1,26622) -6.90304187E-07                    1_GWF-(1,14801)
        545         11         45  1.36477297E-05                    1_GWF-(1,26649) -1.58439535E-06                    1_GWF-(1,14800)
        546         11         46  1.45671093E-05                    1_GWF-(1,11440) -1.89966807E-06                    1_GWF-(1,14801)
        547         11         47  1.57725828E-05                    1_GWF-(1,11428)  1.68787463E-06                    1_GWF-(1,14801)
        548         11         48 -2.03809410E-05                    1_GWF-(1,11439) -1.71596433E-06                    1_GWF-(1,14801)
        549         11         49  1.79138214E-05                    1_GWF-(1,26218) -1.37487323E-06                    1_GWF-(1,14800)
        550         11         50  2.86712785E-05                    1_GWF-(1,11439) -1.56047053E-06                    1_GWF-(1,14801)
        551         12          1 -3.01440978E-05                    1_GWF-(1,11439) -1.42907140E-06                    1_GWF-(1,14800)
        552         12          2 -1.68129618E-05                    1_GWF-(1,26218) -1.63921737E-06                    1_GWF-(1,14801)
        553         12          3  1.82147115E-05                    1_GWF-(1,11439)  1.34258852E-06                    1_GWF-(1,14801)
        554         12          4 -1.66811022E-05                    1_GWF-(1,11428) -1.36084271E-06                    1_GWF-(1,14801)
        555         12          5 -1.38406277E-05                    1_GWF-(1,26420) -9.83382932E-07                    1_GWF-(1,14800)
        556         12          6 -1.48243313E-05                    1_GWF-(1,26487)  4.02590234E-07                    1_GWF-(1,11430)
        557         12          7 -1.50784962E-05                    1_GWF-(1,26486) -9.25224952E-07                    1_GWF-(1,14801)
        558         12          8  1.15070762E-05                    1_GWF-(1,26486) -1.22077016E-06                    1_GWF-(1,14800)
        559         12          9  1.02959879E-05                    1_GWF-(1,26217) -1.23504566E-06                    1_GWF-(1,14801)
        560         12         10 -1.20430738E-05                    1_GWF-(1,11428) -1.05189942E-06                    1_GWF-(1,14800)
        561         12         11  7.34194951E-06                    1_GWF-(1,26674) -9.12694086E-07                    1_GWF-(1,14801)
        562         12         12  1.14622726E-05                    1_GWF-(1,26622) -4.85421604E-07                    1_GWF-(1,14800)
        563         12         13  1.44740722E-05                    1_GWF-(1,26649) -3.65908282E-07                    1_GWF-(1,14800)
        564         12         14  1.21246906E-05                    1_GWF-(1,26648) -8.07564629E-07                    1_GWF-(1,14801)
        565         12         15  1.23259082E-05                    1_GWF-(1,26649) -1.05842003E-06                    1_GWF-(1,14800)
        566         12         16 -1.25948085E-05                    1_GWF-(1,11428) -1.07219108E-06                    1_GWF-(1,14801)
        567         12         17 -7.89951645E-06                    1_GWF-(1,26622)  8.53815034E-07                    1_GWF-(1,14801)
        568         12         18 -1.20228608E-05                    1_GWF-(1,26623)  3.90210924E-07                    1_GWF-(1,14800)
        569         12         19 -1.34353087E-05                    1_GWF-(1,26665)  4.49582899E-07                    1_GWF-(1,14800)
        570         12         20 -1.71492312E-05                    1_GWF-(1,26588)  9.72874274E-07                    1_GWF-(1,14801)
        571         12         21  1.30764900E-05                    1_GWF-(1,11428) -1.16109115E-06                    1_GWF-(1,14801)
        572         12         22 -1.33448308E-05                    1_GWF-(1,11428) -1.16911247E-06                    1_GWF-(1,14800)
        573         12         23  9.07928949E-06                    1_GWF-(1,26588) -1.03218271E-06                    1_GWF-(1,14801)
        574         12         24  9.62623987E-06                    1_GWF-(1,26666) -7.24324999E-07                    1_GWF-(1,14800)
        575         12         25  1.25508895E-05                    1_GWF-(1,26622)  2.14450244E-07                    1_GWF-(1,10650)
        576         12         26  1.52538898E-05                    1_GWF-(1,26543)  5.66773830E-07                    1_GWF-(1,14800)
        577         12         27  1.40756260E-05                    1_GWF-(1,26588)  1.10892537E-06                    1_GWF-(1,14801)
        578         12         28 -1.03324498E-05                    1_GWF-(1,11428)  1.20182697E-06                    1_GWF-(1,14800)
        579         12         29  7.62681185E-06                    1_GWF-(1,20216)  1.32502017E-06                    1_GWF-(1,14801)
        580         12         30  8.44576238E-06                    1_GWF-(1,11428)  1.38765907E-06                    1_GWF-(1,14800)
        581         12         31 -1.14999861E-05                    1_GWF-(1,11428)  1.42520177E-06                    1_GWF-(1,14801)
        582         12         32 -8.08480499E-06                    1_GWF-(1,26623)  1.22555920E-06                    1_GWF-(1,14800)
        583         12         33 -6.55181496E-06                    1_GWF-(1,25801)  1.17586113E-06                    1_GWF-(1,14801)
        584         12         34 -9.85301598E-06                    1_GWF-(1,11428)  1.04805092E-06                    1_GWF-(1,14800)
        585         12         35 -8.73130159E-06                    1_GWF-(1,26350)  9.47404761E-07                    1_GWF-(1,14801)
        586         12         36 -1.13497592E-05                    1_GWF-(1,26422)  7.23095488E-07                    1_GWF-(1,14800)
        587         12         37 -1.16681351E-05                    1_GWF-(1,26350)  3.82456730E-07                    1_GWF-(1,14801)
        588         12         38  1.15584905E-05                    1_GWF-(1,26649)  4.22994900E-07                    1_GWF-(1,14801)
        589         12         39  1.12930877E-05                    1_GWF-(1,26622)  7.23912009E-07                    1_GWF-(1,14800)
        590         12         40 -8.12570048E-06                    1_GWF-(1,11428)  7.83828010E-07                    1_GWF-(1,14801)
        591         12         41  8.61233006E-06                    1_GWF-(1,26350)  5.39718428E-07                    1_GWF-(1,14800)
        592         12         42  1.07098425E-05                    1_GWF-(1,26422) -2.97983408E-07                    1_GWF-(1,15941)
        593         12         43  1.22989507E-05                    1_GWF-(1,26350)  3.60329883E-07                    1_GWF-(1,10651)
        594         12         44  1.38129835E-05                    1_GWF-(1,26422)  5.89129291E-07                    1_GWF-(1,14800)
        595         12         45  1.04770022E-05                    1_GWF-(1,26350)  6.23435138E-07                    1_GWF-(1,14801)
        596         12         46  9.11724089E-06                    1_GWF-(1,26544)  3.75962122E-07                    1_GWF-(1,14800)
        597         12         47  1.25402006E-05                    1_GWF-(1,26486)  2.75149747E-07                    1_GWF-(1,10650)
        598         12         48  9.21444425E-06                    1_GWF-(1,26487)  3.78858949E-07                    1_GWF-(1,14801)
        599         12         49  6.32859298E-06                    1_GWF-(1,26486)  4.28796317E-07                    1_GWF-(1,14800)
        600         12         50 -6.64433688E-06                    1_GWF-(1,26486)  5.15668212E-07                    1_GWF-(1,14801)
        601         13          1  6.24111787E-06                    1_GWF-(1,26486)  9.40713682E-07                    1_GWF-(1,14800)
        602         13          2 -6.97285429E-06                    1_GWF-(1,26588)  5.84589841E-07                    1_GWF-(1,14801)
        603         13          3 -8.43518122E-06                    1_GWF-(1,26487)  4.42496811E-07                    1_GWF-(1,14800)
        604         13          4 -1.15347660E-05                    1_GWF-(1,26486)  1.78932706E-07                    1_GWF-(1,10652)
        605         13          5 -8.99925997E-06                    1_GWF-(1,26487)  6.48002080E-07                    1_GWF-(1,14801)
        606         13          6 -8.23666493E-06                    1_GWF-(1,26420)  7.86296677E-07                    1_GWF-(1,14800)
        607         13          7 -8.34762744E-06                    1_GWF-(1,26422)  5.24982921E-07                    1_GWF-(1,14801)
        608         13          8 -7.41765667E-06                    1_GWF-(1,26420)  1.93472921E-07                    1_GWF-(1,10479)
        609         13          9  6.59652020E-06                    1_GWF-(1,26589)  3.49759039E-07                    1_GWF-(1,14800)
        610         13         10  8.02368180E-06                    1_GWF-(1,26588)  5.05058769E-07                    1_GWF-(1,14801)
        611         13         11 -6.67400831E-06                    1_GWF-(1,26588)  3.18632445E-07                    1_GWF-(1,14800)
        612         13         12  5.08054000E-06                    1_GWF-(1,26588)  1.28237264E-07                    1_GWF-(1,10628)
        613         13         13  6.90285297E-06                    1_GWF-(1,26422)  2.02945387E-07                    1_GWF-(1,15940)
        614         13         14  7.51730096E-06                    1_GWF-(1,26350)  2.94122649E-07                    1_GWF-(1,14800)
        615         13         15  6.07463895E-06                    1_GWF-(1,26422)  3.19182097E-07                    1_GWF-(1,14801)
        616         13         16  4.28072867E-06                    1_GWF-(1,26649)  2.04809940E-07                    1_GWF-(1,14800)
        617         13         17 -4.36912103E-06                    1_GWF-(1,26649) -1.33790281E-07                    1_GWF-(1,15940)
        618         13         18  4.02117107E-06                    1_GWF-(1,26649)  2.33949572E-07                    1_GWF-(1,14801)
        619         13         19  3.92683044E-06                    1_GWF-(1,26622)  3.03059532E-07                    1_GWF-(1,14800)
        620         13         20  4.55665902E-06                    1_GWF-(1,26623)  4.08744813E-07                    1_GWF-(1,14801)
        621         13         21 -3.28843039E-06                    1_GWF-(1,26422)  4.36669715E-07                    1_GWF-(1,14800)
        622         13         22 -3.00090845E-06                    1_GWF-(1,20229)  4.59304283E-07                    1_GWF-(1,14801)
        623         13         23 -2.93156552E-06                    1_GWF-(1,11438)  4.82311523E-07                    1_GWF-(1,14800)
        624         13         24 -2.54102609E-06                    1_GWF-(1,26586)  5.33197071E-07                    1_GWF-(1,14801)
        625         13         25 -2.92484466E-06                    1_GWF-(1,26543) -4.52770090E-07                    1_GWF-(1,14801)
        626         13         26 -2.26999127E-06                    1_GWF-(1,26622) -3.79270080E-07                    1_GWF-(1,14800)
        627         13         27  2.18197056E-06                    1_GWF-(1,11438) -3.38718033E-07                    1_GWF-(1,14801)
        628         13         28  2.67896824E-06                    1_GWF-(1,11439) -3.04886501E-07                    1_GWF-(1,14800)
        629         13         29  2.41522262E-06                    1_GWF-(1,26665) -2.05549271E-07                    1_GWF-(1,14801)
        630         13         30  3.12338154E-06                    1_GWF-(1,26666) -5.10623801E-08                    1_GWF-(1,15091)
        631         13         31  3.88316069E-06                    1_GWF-(1,26665)  1.28549594E-07                    1_GWF-(1,14801)
        632         13         32  2.79993721E-06                    1_GWF-(1,26666)  1.93667777E-07                    1_GWF-(1,14800)
        633         13         33  2.01587922E-06                    1_GWF-(1,26665)  2.02827095E-07                    1_GWF-(1,14801)
        634         13         34  2.46987527E-06                    1_GWF-(1,26622) -1.30002693E-07                    1_GWF-(1,14801)
        635         13         35 -2.49770741E-06                    1_GWF-(1,26622) -5.84782343E-08                    1_GWF-(1,10629)
        636         13         36 -2.49842747E-06                    1_GWF-(1,26623) -1.55569965E-07                    1_GWF-(1,14800)
        637         13         37 -2.24026416E-06                    1_GWF-(1,26622) -1.95057660E-07                    1_GWF-(1,14801)
        638         13         38 -1.81873177E-06                    1_GWF-(1,20560) -2.15348465E-07                    1_GWF-(1,14800)
        639         13         39 -1.48264676E-06                    1_GWF-(1,20228) -2.23582690E-07                    1_GWF-(1,14801)
        640         13         40 -1.18191543E-06                    1_GWF-(1,20206) -1.97480851E-07                    1_GWF-(1,14800)
        641         13         41 -1.30300945E-06                    1_GWF-(1,19969) -1.75005683E-07                    1_GWF-(1,14801)
        642         13         42  1.43037962E-06                    1_GWF-(1,26586) -1.56961214E-07                    1_GWF-(1,14800)
        643         13         43  1.70623626E-06                    1_GWF-(1,26648) -1.26013164E-07                    1_GWF-(1,14801)
        644         13         44  2.30474724E-06                    1_GWF-(1,26649) -4.00629311E-08                    1_GWF-(1,14801)
        645         13         45 -1.78686670E-06                    1_GWF-(1,26649) -1.50405173E-07                    1_GWF-(1,14800)
        646         13         46 -1.75552813E-06                    1_GWF-(1,26622) -1.84362399E-07                    1_GWF-(1,14801)
        647         13         47  2.04374526E-06                    1_GWF-(1,11439) -1.66284407E-07                    1_GWF-(1,14800)
        648         13         48 -2.07066141E-06                    1_GWF-(1,11440) -1.59965588E-07                    1_GWF-(1,14801)
        649         13         49 -2.13655984E-06                    1_GWF-(1,26623)  5.66500454E-08                    1_GWF-(1,14801)
        650         13         50  2.70134068E-06                    1_GWF-(1,11439) -8.30192941E-08                    1_GWF-(1,14800)
        651         14          1  2.42867910E-06                    1_GWF-(1,26487) -8.70516329E-08                    1_GWF-(1,14801)
        652         14          2  2.61170619E-06                    1_GWF-(1,26588) -4.63719419E-08                    1_GWF-(1,15091)
        653         14          3  2.25781261E-06                    1_GWF-(1,11439)  9.91590411E-08                    1_GWF-(1,15091)
        654         14          4 -1.39364427E-06                    1_GWF-(1,11428) -1.31546936E-07                    1_GWF-(1,14801)
        655         14          5  1.80049170E-06                    1_GWF-(1,26622) -1.54018118E-07                    1_GWF-(1,14800)
        656         14          6  1.66773647E-06                    1_GWF-(1,26649) -1.06358115E-07                    1_GWF-(1,14801)
        657         14          7 -1.76468728E-06                    1_GWF-(1,26649) -3.00027153E-08                    1_GWF-(1,10457)
        658         14          8 -1.41089979E-06                    1_GWF-(1,26622) -1.01631382E-07                    1_GWF-(1,14800)
        659         14          9 -1.40717200E-06                    1_GWF-(1,26649) -1.38059093E-07                    1_GWF-(1,14801)
        660         14         10  1.00362070E-06                    1_GWF-(1,19969) -1.64182583E-07                    1_GWF-(1,14800)
        661         14         11  1.01991542E-06                    1_GWF-(1,26420) -1.87842030E-07                    1_GWF-(1,14801)
        662         14         12  1.05186022E-06                    1_GWF-(1,26588) -1.36998647E-07                    1_GWF-(1,14800)
        663         14         13 -1.67001346E-06                    1_GWF-(1,26487) -4.14660174E-08                    1_GWF-(1,14801)
        664         14         14 -1.53771299E-06                    1_GWF-(1,26486) -8.21482912E-08                    1_GWF-(1,14801)
        665         14         15 -1.16981409E-06                    1_GWF-(1,26544) -1.45479287E-07                    1_GWF-(1,14800)
        666         14         16  1.12969719E-06                    1_GWF-(1,26623) -1.67422108E-07                    1_GWF-(1,14801)
        667         14         17 -1.12723631E-06                    1_GWF-(1,26623)  1.48389852E-07                    1_GWF-(1,14801)
        668         14         18 -1.28140624E-06                    1_GWF-(1,26622)  9.58295089E-08                    1_GWF-(1,14800)
        669         14         19 -1.47569007E-06                    1_GWF-(1,26666) -5.44419681E-08                    1_GWF-(1,10650)
        670         14         20 -1.75620040E-06                    1_GWF-(1,26665)  8.94005869E-08                    1_GWF-(1,14801)
        671         14         21 -1.59672928E-06                    1_GWF-(1,26663) -1.42343470E-07                    1_GWF-(1,14801)
        672         14         22 -1.06299590E-06                    1_GWF-(1,26674) -1.43511491E-07                    1_GWF-(1,14800)
        673         14         23 -8.36313085E-07                    1_GWF-(1,20167) -1.24335586E-07                    1_GWF-(1,14801)
        674         15          1  7.08953688E-07                    1_GWF-(1,15756) -1.23809481E-07                    1_GWF-(1,14800)
 --------------------------------------------------------------------------------------------------------------------------------------



 MEMORY MANAGER TOTAL STORAGE BY DATA TYPE, IN MEGABYTES
 -------------------------------
                    ALLOCATED   
 DATA TYPE           MEMORY     
 -------------------------------
 Character        4.66090000E-02
 Logical          4.40000000E-05
 Integer          5.2037920     
 Real             11.901376     
 -------------------------------
 Total            17.151821     
 -------------------------------


 
 Run end date and time (yyyy/mm/dd hh:mm:ss): 2022/06/01 17:09:11
 Elapsed run time:  0.663 Seconds
 Normal termination of simulation.
