                                   MODFLOW 6
                U.S. GEOLOGICAL SURVEY MODULAR HYDROLOGIC MODEL
                          GROUNDWATER FLOW MODEL (GWF)
                            VERSION 6.2.2 07/30/2021

   MODFLOW 6 compiled Jul 31 2021 14:22:53 with IFORT compiler (ver. 19.10.3)

This software has been approved for release by the U.S. Geological 
Survey (USGS). Although the software has been subjected to rigorous 
review, the USGS reserves the right to update the software as needed 
pursuant to further analysis and review. No warranty, expressed or 
implied, is made by the USGS or the U.S. Government as to the 
functionality of the software and related material nor shall the 
fact of release constitute any such warranty. Furthermore, the 
software is released on condition that neither the USGS nor the U.S. 
Government shall be held liable for any damages resulting from its 
authorized or unauthorized use. Also refer to the USGS Water 
Resources Software User Rights Notice for complete use, copyright, 
and distribution information.


System command used to initiate simulation:
mf6

MODFLOW was compiled using uniform precision.

Real Variables
  KIND: 8
  TINY (smallest non-zero value):    2.225074-308
  HUGE (largest value):    1.797693+308
  PRECISION: 15
  BIT SIZE: 64

Integer Variables
  KIND: 4
  HUGE (largest value): 2147483647
  BIT SIZE: 32

Long Integer Variables
  KIND: 8
  HUGE (largest value): 9223372036854775807
  BIT SIZE: 64

Logical Variables
  KIND: 4
  BIT SIZE: 32
 

 OPENED ./ml.disv
 FILE TYPE:DISV6                  UNIT 1005   STATUS:OLD                 
 FORMAT:FORMATTED              ACCESS:SEQUENTIAL          
 ACTION:READ                


 OPENED ./ml.ic
 FILE TYPE:IC6                    UNIT 1006   STATUS:OLD                 
 FORMAT:FORMATTED              ACCESS:SEQUENTIAL          
 ACTION:READ                


 OPENED ./ml.npf
 FILE TYPE:NPF6                   UNIT 1007   STATUS:OLD                 
 FORMAT:FORMATTED              ACCESS:SEQUENTIAL          
 ACTION:READ                


 OPENED ./ml.ghb
 FILE TYPE:GHB6                   UNIT 1008   STATUS:OLD                 
 FORMAT:FORMATTED              ACCESS:SEQUENTIAL          
 ACTION:READ                


 OPENED ./ml.rcha
 FILE TYPE:RCH6                   UNIT 1009   STATUS:OLD                 
 FORMAT:FORMATTED              ACCESS:SEQUENTIAL          
 ACTION:READ                


 OPENED ./ml.obs
 FILE TYPE:OBS6                   UNIT 1010   STATUS:OLD                 
 FORMAT:FORMATTED              ACCESS:SEQUENTIAL          
 ACTION:READ                


 OPENED ./ml.oc
 FILE TYPE:OC6                    UNIT 1011   STATUS:OLD                 
 FORMAT:FORMATTED              ACCESS:SEQUENTIAL          
 ACTION:READ                


 OPENED ml.wel
 FILE TYPE:WEL6                   UNIT 1012   STATUS:OLD                 
 FORMAT:FORMATTED              ACCESS:SEQUENTIAL          
 ACTION:READ                


 OPENED ml.drn
 FILE TYPE:DRN6                   UNIT 1013   STATUS:OLD                 
 FORMAT:FORMATTED              ACCESS:SEQUENTIAL          
 ACTION:READ                


 OPENED ml.riv
 FILE TYPE:RIV6                   UNIT 1014   STATUS:OLD                 
 FORMAT:FORMATTED              ACCESS:SEQUENTIAL          
 ACTION:READ                


 DISV -- VERTEX GRID DISCRETIZATION PACKAGE, VERSION 1 : 12/23/2015 - INPUT READ FROM UNIT 1005


 # File generated by Flopy version 3.3.5 on 05/30/2022 at 17:40:52.

 PROCESSING DISCRETIZATION OPTIONS
    MODEL LENGTH UNIT IS METERS
    XORIGIN SPECIFIED AS     405575.681000000    
    YORIGIN SPECIFIED AS     6423306.54000000    
 END OF DISCRETIZATION OPTIONS

 PROCESSING DISCRETIZATION DIMENSIONS
   NLAY = 1
   NCPL = 26674
   NVERT = 27090
 END OF DISCRETIZATION DIMENSIONS

 PROCESSING GRIDDATA
 END PROCESSING GRIDDATA

 PROCESSING VERTICES
   SUCCESSFULLY READ 27090 (X,Y) COORDINATES
   MINIMUM X COORDINATE =     405575.681000000    
   MAXIMUM X COORDINATE =     413975.681000000    
   MINIMUM Y COORDINATE =     6423306.54000000    
   MAXIMUM Y COORDINATE =     6432506.54000000    
 END PROCESSING VERTICES

 PROCESSING CELL2D
   SUCCESSFULLY READ 26674 CELL2D INFORMATION ENTRIES
   MINIMUM X CELL CENTER =     405675.681000000    
   MAXIMUM X CELL CENTER =     413875.681000000    
   MINIMUM Y CELL CENTER =     6423406.54000000    
   MAXIMUM Y CELL CENTER =     6432406.54000000    
   MAXIMUM NUMBER OF CELL2D VERTICES IS 6 FOR CELL 208
 END PROCESSING VERTICES

 NPF -- NODE PROPERTY FLOW PACKAGE, VERSION 1, 3/30/2015 INPUT READ FROM UNIT 1007


 # File generated by Flopy version 3.3.5 on 05/30/2022 at 17:40:54.
 PROCESSING NPF OPTIONS
    CELL-BY-CELL FLOW INFORMATION WILL BE SAVED TO BINARY FILE WHENEVER ICBCFL IS NOT ZERO.
    SPECIFIC DISCHARGE WILL BE CALCULATED AT CELL CENTERS AND WRITTEN TO DATA-SPDIS IN BUDGET FILE WHEN REQUESTED.
 END OF NPF OPTIONS

 WEL   -- WEL PACKAGE, VERSION 8, 2/22/2014 INPUT READ FROM UNIT 1012
 # File generated by Flopy version 3.3.5 on 05/30/2022 at 17:40:54.

 PROCESSING WEL OPTIONS
    WEL BOUNDARIES HAVE NAMES IN LAST COLUMN.
    FLOWS WILL BE SAVED TO BUDGET FILE SPECIFIED IN OUTPUT CONTROL
 END OF WEL OPTIONS

 PROCESSING WEL DIMENSIONS
    MAXBOUND =       9
 END OF WEL DIMENSIONS

 DRN   -- DRN PACKAGE, VERSION 8, 2/22/2014 INPUT READ FROM UNIT 1013
 # File generated by Flopy version 3.3.5 on 05/30/2022 at 17:40:54.

 PROCESSING DRN OPTIONS
    DRN BOUNDARIES HAVE NAMES IN LAST COLUMN.
    FLOWS WILL BE SAVED TO BUDGET FILE SPECIFIED IN OUTPUT CONTROL

 OPENED ml.drn.obs
 FILE TYPE:OBS   UNIT 1016   STATUS:OLD                 
 FORMAT:FORMATTED              ACCESS:SEQUENTIAL          
 ACTION:READ                

 END OF DRN OPTIONS

 PROCESSING DRN DIMENSIONS
    MAXBOUND =     133
 END OF DRN DIMENSIONS

 RIV   -- RIV PACKAGE, VERSION 8, 2/22/2014 INPUT READ FROM UNIT 1014
 # File generated by Flopy version 3.3.5 on 05/30/2022 at 17:40:55.

 PROCESSING RIV OPTIONS
    AUXILIARY RIV VARIABLE: FID             
    RIV BOUNDARIES HAVE NAMES IN LAST COLUMN.
    FLOWS WILL BE SAVED TO BUDGET FILE SPECIFIED IN OUTPUT CONTROL
 END OF RIV OPTIONS

 PROCESSING RIV DIMENSIONS
    MAXBOUND =     794
 END OF RIV DIMENSIONS

 GHB   -- GHB PACKAGE, VERSION 8, 2/22/2014 INPUT READ FROM UNIT 1008
 # File generated by Flopy version 3.3.5 on 05/30/2022 at 17:40:54.

 PROCESSING GHB OPTIONS
    GHB BOUNDARIES HAVE NAMES IN LAST COLUMN.
    FLOWS WILL BE SAVED TO BUDGET FILE SPECIFIED IN OUTPUT CONTROL
 END OF GHB OPTIONS

 PROCESSING GHB DIMENSIONS
    MAXBOUND =     153
 END OF GHB DIMENSIONS

 RCH   -- RCH PACKAGE, VERSION 8, 2/22/2014 INPUT READ FROM UNIT 1009
 # File generated by Flopy version 3.3.5 on 05/30/2022 at 17:40:54.

 PROCESSING RCH OPTIONS
    RECHARGE INPUT WILL BE READ AS ARRAY(S).
    FLOWS WILL BE SAVED TO BUDGET FILE SPECIFIED IN OUTPUT CONTROL
 END OF RCH OPTIONS

 IC -- INITIAL CONDITIONS PACKAGE, VERSION 8, 3/28/2015 INPUT READ FROM UNIT 1006
 # File generated by Flopy version 3.3.5 on 05/30/2022 at 17:40:54.
 PROCESSING GRIDDATA

     INITIAL HEAD =   15.00000    
 END PROCESSING GRIDDATA
 PROCESSING GRIDDATA

                ICELLTYPE = 0

 OPENED ../com_ext/k.txt
 FILE TYPE:OPEN/CLOSE   UNIT 1017   STATUS:OLD                 
 FORMAT:FORMATTED              ACCESS:SEQUENTIAL          
 ACTION:READ                

 K33 not provided.  Assuming K33 = K.
 K22 not provided.  Assuming K22 = K.
 END PROCESSING GRIDDATA

The observation utility is active for "ML"
 # File generated by Flopy version 3.3.5 on 05/30/2022 at 17:40:54.

Processing observation options:

Text output number of digits of precision set to: 10
The PRINT_INPUT option has been specified.


 OBSERVATIONS READ FROM FILE "ml.obs"
 ----------------------------------------------------------------------------------------------------------------------------------------------------------------------------------------------------------------------------
 NAME                                     TYPE                                       TIME         LOCATION DATA                              OUTPUT FILENAME                                                                 
 ----------------------------------------------------------------------------------------------------------------------------------------------------------------------------------------------------------------------------
 PRG                                      CONTINUOUS  HEAD                           ALL TIMES    "1 16523"                                  sim/hds.csv                                                                     
 P8                                       CONTINUOUS  HEAD                           ALL TIMES    "1 10323"                                  sim/hds.csv                                                                     
 P24                                      CONTINUOUS  HEAD                           ALL TIMES    "1 9594"                                   sim/hds.csv                                                                     
 P25                                      CONTINUOUS  HEAD                           ALL TIMES    "1 13966"                                  sim/hds.csv                                                                     
 P32                                      CONTINUOUS  HEAD                           ALL TIMES    "1 15787"                                  sim/hds.csv                                                                     
 P33                                      CONTINUOUS  HEAD                           ALL TIMES    "1 15825"                                  sim/hds.csv                                                                     
 PF                                       CONTINUOUS  HEAD                           ALL TIMES    "1 21048"                                  sim/hds.csv                                                                     
 PH                                       CONTINUOUS  HEAD                           ALL TIMES    "1 20781"                                  sim/hds.csv                                                                     
 PZHM1                                    CONTINUOUS  HEAD                           ALL TIMES    "1 14521"                                  sim/hds.csv                                                                     
 P26                                      CONTINUOUS  HEAD                           ALL TIMES    "1 13141"                                  sim/hds.csv                                                                     
 P27                                      CONTINUOUS  HEAD                           ALL TIMES    "1 8465"                                   sim/hds.csv                                                                     
 P28                                      CONTINUOUS  HEAD                           ALL TIMES    "1 8924"                                   sim/hds.csv                                                                     
 P29                                      CONTINUOUS  HEAD                           ALL TIMES    "1 4524"                                   sim/hds.csv                                                                     
 P30                                      CONTINUOUS  HEAD                           ALL TIMES    "1 5255"                                   sim/hds.csv                                                                     
 R20                                      CONTINUOUS  HEAD                           ALL TIMES    "1 10676"                                  sim/hds.csv                                                                     
 R21                                      CONTINUOUS  HEAD                           ALL TIMES    "1 10403"                                  sim/hds.csv                                                                     
 P34                                      CONTINUOUS  HEAD                           ALL TIMES    "1 15131"                                  sim/hds.csv                                                                     
 P37                                      CONTINUOUS  HEAD                           ALL TIMES    "1 15755"                                  sim/hds.csv                                                                     
 P38                                      CONTINUOUS  HEAD                           ALL TIMES    "1 15045"                                  sim/hds.csv                                                                     
 P39                                      CONTINUOUS  HEAD                           ALL TIMES    "1 9637"                                   sim/hds.csv                                                                     
 P40                                      CONTINUOUS  HEAD                           ALL TIMES    "1 9312"                                   sim/hds.csv                                                                     
 AP1                                      CONTINUOUS  HEAD                           ALL TIMES    "1 9702"                                   sim/hds.csv                                                                     
 RCK1                                     CONTINUOUS  HEAD                           ALL TIMES    "1 15900"                                  sim/hds.csv                                                                     
 RCK2                                     CONTINUOUS  HEAD                           ALL TIMES    "1 15199"                                  sim/hds.csv                                                                     
 P23                                      CONTINUOUS  HEAD                           ALL TIMES    "1 6409"                                   sim/hds.csv                                                                     
 ----------------------------------------------------------------------------------------------------------------------------------------------------------------------------------------------------------------------------


    BINARY GRID INFORMATION WILL BE WRITTEN TO:
      UNIT NUMBER: 1019
      FILE NAME: /srv/common/ptrack/case_study/pst/ml_07/./ml.disv.grb

 OPENED /srv/common/ptrack/case_study/pst/ml_07/./ml.disv.grb
 FILE TYPE:DATA(BINARY)   UNIT 1019   STATUS:REPLACE             
 FORMAT:UNFORMATTED            ACCESS:STREAM              
 ACTION:READWRITE           

      THE LAST TIME STEP WILL BE PRINTED
      THE LAST TIME STEP WILL BE PRINTED
 # File generated by Flopy version 3.3.5 on 05/30/2022 at 17:40:54.

 PROCESSING OC OPTIONS

    BUDGET INFORMATION WILL BE WRITTEN TO:
      UNIT NUMBER: 1020
      FILE NAME: ml.cbc

 OPENED ml.cbc
 FILE TYPE:DATA(BINARY)   UNIT 1020   STATUS:REPLACE             
 FORMAT:UNFORMATTED            ACCESS:STREAM              
 ACTION:READWRITE           

    HEAD INFORMATION WILL BE WRITTEN TO:
      UNIT NUMBER: 1021
      FILE NAME: ml.hds

 OPENED ml.hds
 FILE TYPE:DATA(BINARY)   UNIT 1021   STATUS:REPLACE             
 FORMAT:UNFORMATTED            ACCESS:STREAM              
 ACTION:READWRITE           

 END OF OC OPTIONS

The observation utility is active for "DRN_0"
 # File generated by Flopy version 3.3.5 on 05/30/2022 at 17:40:54.

Processing observation options:



start timestep kper="1" kstp="1" mode="normal"


 BEGIN READING OUTPUT CONTROL FOR STRESS PERIOD 1
      THE LAST TIME STEP WILL BE SAVED
      THE LAST TIME STEP WILL BE SAVED

 END READING OUTPUT CONTROL FOR STRESS PERIOD 1

 OPENED ext/wel_spd_1.txt
 FILE TYPE:OPEN/CLOSE   UNIT 1023   STATUS:OLD                 
 FORMAT:FORMATTED              ACCESS:SEQUENTIAL          
 ACTION:READ                


 OPENED ext/drn_spd_1.txt
 FILE TYPE:OPEN/CLOSE   UNIT 1024   STATUS:OLD                 
 FORMAT:FORMATTED              ACCESS:SEQUENTIAL          
 ACTION:READ                


 OPENED ext/riv_spd_1.txt
 FILE TYPE:OPEN/CLOSE   UNIT 1025   STATUS:OLD                 
 FORMAT:FORMATTED              ACCESS:SEQUENTIAL          
 ACTION:READ                


 OPENED ../com_ext/ghb_spd_1.txt
 FILE TYPE:OPEN/CLOSE   UNIT 1026   STATUS:OLD                 
 FORMAT:FORMATTED              ACCESS:SEQUENTIAL          
 ACTION:READ                


 OPENED ../com_ext/rech_spd_1.txt
 FILE TYPE:OPEN/CLOSE   UNIT 1027   STATUS:OLD                 
 FORMAT:FORMATTED              ACCESS:SEQUENTIAL          
 ACTION:READ                


 SLN_1 INNER ITERATION SUMMARY
 --------------------------------------------------------------------------------------------------------------------------------------
      TOTAL      OUTER      INNER                                                            MAXIMUM                                   
  ITERATION  ITERATION  ITERATION  MAXIMUM CHANGE      MAXIMUM CHANGE MODEL-(CELLID)        RESIDUAL    MAXIMUM RESIDUAL MODEL-(CELLID)
 --------------------------------------------------------------------------------------------------------------------------------------
          1          1          1       14.922449                    1_GWF-(1,26517)      0.58574141                    1_GWF-(1,11179)
          2          1          2       16.729682                    1_GWF-(1,26516)     -0.40791525                    1_GWF-(1,11179)
          3          1          3       20.987961                    1_GWF-(1,26563)     -0.33731619                    1_GWF-(1,11161)
          4          1          4       21.081738                    1_GWF-(1,26513)      0.33573281                    1_GWF-(1,11178)
          5          1          5       16.344509                    1_GWF-(1,26647)     -0.28052672                    1_GWF-(1,11208)
          6          1          6       20.201338                    1_GWF-(1,26649)     -0.30585528                    1_GWF-(1,11207)
          7          1          7       17.426066                    1_GWF-(1,26622)      0.24191699                    1_GWF-(1,11207)
          8          1          8       11.687513                    1_GWF-(1,26623)     -0.17687316                    1_GWF-(1,11207)
          9          1          9       10.741203                    1_GWF-(1,26589)      0.10894753                    1_GWF-(1,10957)
         10          1         10       9.9324556                    1_GWF-(1,26486)     -0.14324183                    1_GWF-(1,11158)
         11          1         11       9.3468457                    1_GWF-(1,26544)     -0.15525992                    1_GWF-(1,11207)
         12          1         12       7.8197112                    1_GWF-(1,26420)      0.11461259                    1_GWF-(1,11153)
         13          1         13       6.6393173                    1_GWF-(1,26422)  6.78044534E-02                    1_GWF-(1,11194)
         14          1         14      -6.2295232                    1_GWF-(1,26622)     -0.10072740                    1_GWF-(1,11153)
         15          1         15      -5.2638584                    1_GWF-(1,26623) -6.70218023E-02                    1_GWF-(1,11194)
         16          1         16      -4.3293815                    1_GWF-(1,26622)  8.53847853E-02                    1_GWF-(1,11180)
         17          1         17      -4.6555001                    1_GWF-(1,26588) -8.30815265E-02                    1_GWF-(1,11153)
         18          1         18      -5.6486559                    1_GWF-(1,26350) -8.54662433E-02                    1_GWF-(1,11194)
         19          1         19      -6.8494338                    1_GWF-(1,26588)  7.27209823E-02                    1_GWF-(1,11194)
         20          1         20      -5.8878629                    1_GWF-(1,26543) -4.85572247E-02                    1_GWF-(1,11155)
         21          1         21      -4.7099473                    1_GWF-(1,26487) -7.44629067E-02                    1_GWF-(1,11194)
         22          1         22      -5.3952869                    1_GWF-(1,26486)  5.49207533E-02                    1_GWF-(1,11200)
         23          1         23      -4.5924801                    1_GWF-(1,26487)  4.92940509E-02                    1_GWF-(1,11151)
         24          1         24      -4.2656126                    1_GWF-(1,26486) -4.56408851E-02                    1_GWF-(1,11194)
         25          1         25       3.9414859                    1_GWF-(1,26420) -4.78434577E-02                    1_GWF-(1,11109)
         26          1         26       4.4218916                    1_GWF-(1,26487)  4.82411032E-02                    1_GWF-(1,11109)
         27          1         27       4.0581928                    1_GWF-(1,26420)  4.00234814E-02                    1_GWF-(1,11108)
         28          1         28       2.4292272                    1_GWF-(1,26487) -4.00572545E-02                    1_GWF-(1,11195)
         29          1         29       2.1564187                    1_GWF-(1,26588)  4.56760410E-02                    1_GWF-(1,11109)
         30          1         30       2.9322371                    1_GWF-(1,26623)  4.75905029E-02                    1_GWF-(1,11110)
         31          1         31       2.5881046                    1_GWF-(1,26586) -4.21861371E-02                    1_GWF-(1,11150)
         32          1         32       2.2262840                    1_GWF-(1,26648) -3.46276530E-02                    1_GWF-(1,11065)
         33          1         33      -2.0731860                    1_GWF-(1,26422)  2.64268885E-02                    1_GWF-(1,11148)
         34          1         34       2.0557766                    1_GWF-(1,26665) -3.01907544E-02                    1_GWF-(1,11108)
         35          1         35      -1.8722761                    1_GWF-(1,26422) -3.05209895E-02                    1_GWF-(1,11158)
         36          1         36      -1.5077511                    1_GWF-(1,26350)  3.14246204E-02                    1_GWF-(1,11065)
         37          1         37       1.4664193                    1_GWF-(1,26350)  3.61076247E-02                    1_GWF-(1,11200)
         38          1         38       1.2221994                    1_GWF-(1,26422)  3.70015722E-02                    1_GWF-(1,11203)
         39          1         39      -1.4231427                    1_GWF-(1,26649)  3.60705285E-02                    1_GWF-(1,11200)
         40          1         40      -1.1770788                    1_GWF-(1,26648) -3.13263509E-02                    1_GWF-(1,11206)
         41          1         41     -0.94979381                    1_GWF-(1,26649) -2.42275418E-02                    1_GWF-(1,11196)
         42          1         42     -0.74433485                    1_GWF-(1,26648) -2.40889277E-02                    1_GWF-(1,11195)
         43          1         43     -0.71875785                    1_GWF-(1,26586)  2.73333345E-02                    1_GWF-(1,11195)
         44          1         44     -0.76104170                    1_GWF-(1,26543)  2.46528122E-02                    1_GWF-(1,11112)
         45          1         45     -0.63000291                    1_GWF-(1,26542)  2.32852084E-02                    1_GWF-(1,11158)
         46          1         46     -0.84731926                    1_GWF-(1,26218)  3.11927171E-02                    1_GWF-(1,11153)
         47          1         47      -1.1816198                    1_GWF-(1,26217) -2.70017789E-02                    1_GWF-(1,11153)
         48          1         48      -1.3085068                    1_GWF-(1,26218) -2.06602891E-02                    1_GWF-(1,11152)
         49          1         49      -1.2455655                    1_GWF-(1,26217) -2.22150399E-02                    1_GWF-(1,11150)
         50          1         50      -1.1461862                    1_GWF-(1,26218) -2.16962320E-02                    1_GWF-(1,11153)
         51          2          1      -97.972252                    1_GWF-(1,26519)     -0.18890857                    1_GWF-(1,26458)
         52          2          2      -36.705907                    1_GWF-(1,26513) -5.27759396E-02                    1_GWF-(1,26516)
         53          2          3      -20.796873                    1_GWF-(1,26637)  5.28311661E-02                    1_GWF-(1,26516)
         54          2          4      -22.177238                    1_GWF-(1,26665) -1.93417157E-02                    1_GWF-(1,26519)
         55          2          5      -12.262661                    1_GWF-(1,26622)  2.01452499E-02                    1_GWF-(1,26519)
         56          2          6      -11.472070                    1_GWF-(1,26589)  1.45832918E-02                    1_GWF-(1,26516)
         57          2          7      -9.9841913                    1_GWF-(1,26543) -1.18828877E-02                    1_GWF-(1,26516)
         58          2          8      -8.0151885                    1_GWF-(1,26486)  8.96514286E-03                    1_GWF-(1,26519)
         59          2          9      -5.3580024                    1_GWF-(1,26487)  6.70545902E-03                    1_GWF-(1,26665)
         60          2         10      -4.6212222                    1_GWF-(1,26421) -5.78630265E-03                    1_GWF-(1,26665)
         61          2         11      -4.0126990                    1_GWF-(1,26350)  4.33642768E-03                    1_GWF-(1,26519)
         62          2         12      -3.0227685                    1_GWF-(1,26217)  3.53415570E-03                    1_GWF-(1,26516)
         63          2         13      -1.5613754                    1_GWF-(1,26622) -2.35417527E-03                    1_GWF-(1,26622)
         64          2         14      -1.2603236                    1_GWF-(1,26623) -2.22409165E-03                    1_GWF-(1,26563)
         65          2         15      -1.1764559                    1_GWF-(1,26622)  3.18138088E-03                    1_GWF-(1,26516)
         66          2         16      -1.5714109                    1_GWF-(1,25730)  4.09034034E-03                    1_GWF-(1,26599)
         67          2         17       1.3814990                    1_GWF-(1,26350) -2.94042515E-03                    1_GWF-(1,26563)
         68          2         18       1.3261743                    1_GWF-(1,26422) -1.98806567E-03                    1_GWF-(1,26588)
         69          2         19       1.2077492                    1_GWF-(1,26588)  1.95463331E-03                    1_GWF-(1,26588)
         70          2         20       1.0244512                    1_GWF-(1,26543) -2.31902221E-03                    1_GWF-(1,26563)
         71          2         21       1.0869989                    1_GWF-(1,26544)  1.99281025E-03                    1_GWF-(1,14801)
         72          2         22       1.1654083                    1_GWF-(1,26543)  2.44906882E-03                    1_GWF-(1,26601)
         73          2         23     -0.89479278                    1_GWF-(1,26218) -2.70151785E-03                    1_GWF-(1,26563)
         74          2         24      -1.4644701                    1_GWF-(1,26487)  2.66415326E-03                    1_GWF-(1,26486)
         75          2         25      -1.6482609                    1_GWF-(1,26486)  2.70214001E-03                    1_GWF-(1,26563)
         76          2         26      -1.5747053                    1_GWF-(1,26487) -2.74974707E-03                    1_GWF-(1,26563)
         77          2         27     -0.94311402                    1_GWF-(1,26420) -1.89546137E-03                    1_GWF-(1,26562)
         78          2         28      0.86642450                    1_GWF-(1,26217)  2.16947950E-03                    1_GWF-(1,26563)
         79          2         29      0.67746770                    1_GWF-(1,26218) -1.73567871E-03                    1_GWF-(1,26563)
         80          2         30      0.68671964                    1_GWF-(1,26420) -1.98921816E-03                    1_GWF-(1,26562)
         81          2         31     -0.47651409                    1_GWF-(1,26674)  1.36039489E-03                    1_GWF-(1,26562)
         82          2         32     -0.45931951                    1_GWF-(1,26421) -1.39886377E-03                    1_GWF-(1,26516)
         83          2         33     -0.57401686                    1_GWF-(1,26350) -1.61263057E-03                    1_GWF-(1,26562)
         84          2         34      0.58563739                    1_GWF-(1,26350)  1.87548057E-03                    1_GWF-(1,26562)
         85          2         35      0.86544441                    1_GWF-(1,26422) -1.30153499E-03                    1_GWF-(1,10966)
         86          2         36      0.55917451                    1_GWF-(1,26350) -1.71130188E-03                    1_GWF-(1,26562)
         87          2         37     -0.53354117                    1_GWF-(1,26350)  1.96404428E-03                    1_GWF-(1,26562)
         88          2         38     -0.34734205                    1_GWF-(1,26422)  1.34882015E-03                    1_GWF-(1,14960)
         89          2         39     -0.34337690                    1_GWF-(1,26544)  1.62333498E-03                    1_GWF-(1,14961)
         90          2         40     -0.37351491                    1_GWF-(1,26486) -2.02664312E-03                    1_GWF-(1,10966)
         91          2         41     -0.26056659                    1_GWF-(1,26420)  2.09778070E-03                    1_GWF-(1,14800)
         92          2         42     -0.20921337                    1_GWF-(1,26588)  2.45940677E-03                    1_GWF-(1,14801)
         93          2         43     -0.25699751                    1_GWF-(1,25852)  3.14877722E-03                    1_GWF-(1,10966)
         94          2         44     -0.23301250                    1_GWF-(1,26196)  3.19892872E-03                    1_GWF-(1,14801)
         95          2         45     -0.21227229                    1_GWF-(1,26420)  5.13354852E-03                    1_GWF-(1,10966)
         96          2         46     -0.19745492                    1_GWF-(1,26569)  4.08161170E-03                    1_GWF-(1,10961)
         97          2         47      0.18731409                    1_GWF-(1,26193)  6.21967487E-03                    1_GWF-(1,10966)
         98          2         48      0.14617969                    1_GWF-(1,26398)  4.61018261E-03                    1_GWF-(1,10961)
         99          2         49      0.14449675                    1_GWF-(1,22773)  6.02283715E-03                    1_GWF-(1,10966)
        100          2         50      0.14829033                    1_GWF-(1,26196)  4.31181494E-03                    1_GWF-(1,10961)
        101          3          1  8.21003678E-02                    1_GWF-(1,22783) -8.17762631E-03                    1_GWF-(1,11936)
        102          3          2      0.15074505                    1_GWF-(1,22783)  5.00835043E-03                    1_GWF-(1,10961)
        103          3          3      0.10938728                    1_GWF-(1,26649)  8.48241825E-03                    1_GWF-(1,11936)
        104          3          4     -0.15085477                    1_GWF-(1,22783) -5.58069569E-03                    1_GWF-(1,11936)
        105          3          5      0.14389931                    1_GWF-(1,26588)  4.36834748E-03                    1_GWF-(1,10966)
        106          3          6      0.11891883                    1_GWF-(1,26194)  3.44613773E-03                    1_GWF-(1,14801)
        107          3          7     -0.12503300                    1_GWF-(1,26543)  3.76172828E-03                    1_GWF-(1,10966)
        108          3          8     -0.10993293                    1_GWF-(1,26421)  2.07445269E-03                    1_GWF-(1,14801)
        109          3          9      0.11240208                    1_GWF-(1,26588)  2.33412918E-03                    1_GWF-(1,10966)
        110          3         10  9.27797761E-02                    1_GWF-(1,26420) -2.43378176E-03                    1_GWF-(1,14800)
        111          3         11      0.12675529                    1_GWF-(1,26486) -2.13246315E-03                    1_GWF-(1,14801)
        112          3         12      0.10578486                    1_GWF-(1,26648) -1.77890236E-03                    1_GWF-(1,14800)
        113          3         13     -0.10304151                    1_GWF-(1,26672) -1.48842700E-03                    1_GWF-(1,14801)
        114          3         14 -9.69579169E-02                    1_GWF-(1,26622)  1.14699470E-03                    1_GWF-(1,11936)
        115          3         15     -0.11534230                    1_GWF-(1,26350)  1.08330306E-03                    1_GWF-(1,15940)
        116          3         16     -0.13102655                    1_GWF-(1,26422) -9.70931224E-04                    1_GWF-(1,15940)
        117          3         17      0.10259283                    1_GWF-(1,26422) -1.09177553E-03                    1_GWF-(1,10966)
        118          3         18      0.12374004                    1_GWF-(1,26350)  8.78216498E-04                    1_GWF-(1,10966)
        119          3         19      0.11611118                    1_GWF-(1,26422)  9.90395548E-04                    1_GWF-(1,14801)
        120          3         20     -0.10990966                    1_GWF-(1,26422)  9.59305614E-04                    1_GWF-(1,14800)
        121          3         21 -8.40693446E-02                    1_GWF-(1,26420)  9.44278477E-04                    1_GWF-(1,14801)
        122          3         22     -0.10449903                    1_GWF-(1,26672)  6.89794842E-04                    1_GWF-(1,14800)
        123          3         23  8.05533253E-02                    1_GWF-(1,26648) -6.12359446E-04                    1_GWF-(1,10961)
        124          3         24      0.12271642                    1_GWF-(1,26588) -8.41310935E-04                    1_GWF-(1,10966)
        125          3         25      0.14124948                    1_GWF-(1,26543) -7.98181435E-04                    1_GWF-(1,14801)
        126          3         26      0.13412792                    1_GWF-(1,26588) -5.40992265E-04                    1_GWF-(1,10965)
        127          3         27      0.12049341                    1_GWF-(1,26420) -1.11852602E-03                    1_GWF-(1,10966)
        128          3         28 -7.50269926E-02                    1_GWF-(1,26586)  9.00190065E-04                    1_GWF-(1,14800)
        129          3         29 -9.56544143E-02                    1_GWF-(1,26543) -1.30619982E-03                    1_GWF-(1,10966)
        130          3         30 -9.35269837E-02                    1_GWF-(1,26420) -1.04341226E-03                    1_GWF-(1,14801)
        131          3         31     -0.11148833                    1_GWF-(1,26487)  7.63910924E-04                    1_GWF-(1,14801)
        132          3         32 -8.94804486E-02                    1_GWF-(1,26420) -3.26735346E-04                    1_GWF-(1,10966)
        133          3         33 -7.30555789E-02                    1_GWF-(1,26422)  9.19140439E-04                    1_GWF-(1,14800)
        134          3         34 -5.50970378E-02                    1_GWF-(1,26350)  1.30309503E-03                    1_GWF-(1,14801)
        135          3         35  4.95534759E-02                    1_GWF-(1,26623)  1.25333377E-03                    1_GWF-(1,14800)
        136          3         36 -5.22873480E-02                    1_GWF-(1,26623)  9.89721336E-04                    1_GWF-(1,14801)
        137          3         37  5.77049124E-02                    1_GWF-(1,26623)  3.76216670E-04                    1_GWF-(1,14800)
        138          3         38  6.47618140E-02                    1_GWF-(1,26622)  7.39133044E-04                    1_GWF-(1,14800)
        139          3         39  5.29302881E-02                    1_GWF-(1,22786)  1.35198012E-03                    1_GWF-(1,14801)
        140          3         40 -4.63339978E-02                    1_GWF-(1,26665) -1.56006438E-03                    1_GWF-(1,14801)
        141          3         41  7.30557100E-02                    1_GWF-(1,26665)  1.06981543E-03                    1_GWF-(1,14801)
        142          3         42 -9.28276770E-02                    1_GWF-(1,26665)  2.67729076E-04                    1_GWF-(1,10961)
        143          3         43 -9.20541430E-02                    1_GWF-(1,26666)  1.45477448E-03                    1_GWF-(1,14800)
        144          3         44  5.55701831E-02                    1_GWF-(1,26588)  2.10562665E-03                    1_GWF-(1,14801)
        145          3         45  8.33645643E-02                    1_GWF-(1,26665) -2.82457513E-03                    1_GWF-(1,14801)
        146          3         46  6.65319326E-02                    1_GWF-(1,26666) -3.05034426E-03                    1_GWF-(1,14800)
        147          3         47 -4.56098790E-02                    1_GWF-(1,26482) -2.99521366E-03                    1_GWF-(1,14801)
        148          3         48 -4.12700331E-02                    1_GWF-(1,26648)  2.16055608E-03                    1_GWF-(1,14801)
        149          3         49 -5.14888380E-02                    1_GWF-(1,26649) -1.89759680E-03                    1_GWF-(1,14801)
        150          3         50 -4.86788796E-02                    1_GWF-(1,26466) -1.27507500E-03                    1_GWF-(1,14800)
        151          4          1 -2.60014414E-02                    1_GWF-(1,11431) -9.23256278E-04                    1_GWF-(1,14801)
        152          4          2 -2.44784359E-02                    1_GWF-(1,11436)  9.28302477E-04                    1_GWF-(1,14801)
        153          4          3 -2.01874943E-02                    1_GWF-(1,26217) -9.52915317E-04                    1_GWF-(1,14801)
        154          4          4 -1.99533893E-02                    1_GWF-(1,26218) -8.72884704E-04                    1_GWF-(1,14800)
        155          4          5  1.77915589E-02                    1_GWF-(1,26218) -6.88864062E-04                    1_GWF-(1,14801)
        156          4          6 -1.87247901E-02                    1_GWF-(1,26218) -4.46152620E-04                    1_GWF-(1,14800)
        157          4          7 -1.59004396E-02                    1_GWF-(1,26217)  1.85498748E-04                    1_GWF-(1,14800)
        158          4          8 -1.39849277E-02                    1_GWF-(1,26665)  9.30501953E-05                    1_GWF-(1,10966)
        159          4          9  1.72453808E-02                    1_GWF-(1,26665)  2.39262070E-04                    1_GWF-(1,14801)
        160          4         10 -1.62065022E-02                    1_GWF-(1,26665)  2.51477671E-04                    1_GWF-(1,14800)
        161          4         11  1.57573918E-02                    1_GWF-(1,26665)  1.49529601E-04                    1_GWF-(1,14801)
        162          4         12 -7.94001032E-03                    1_GWF-(1,26649)  1.02176821E-04                    1_GWF-(1,14801)
        163          4         13 -7.55246299E-03                    1_GWF-(1,26622)  1.97930045E-04                    1_GWF-(1,14800)
        164          4         14  9.19691462E-03                    1_GWF-(1,26622)  1.96774332E-04                    1_GWF-(1,14801)
        165          4         15  8.19790081E-03                    1_GWF-(1,26623)  1.16467436E-04                    1_GWF-(1,14800)
        166          4         16 -6.93777816E-03                    1_GWF-(1,26623)  6.15071645E-05                    1_GWF-(1,14800)
        167          4         17 -7.03785229E-03                    1_GWF-(1,26622)  1.77565341E-04                    1_GWF-(1,14801)
        168          4         18 -4.61434366E-03                    1_GWF-(1,26486)  2.41413527E-04                    1_GWF-(1,14800)
        169          4         19  6.34520440E-03                    1_GWF-(1,26588)  2.38638578E-04                    1_GWF-(1,14801)
        170          4         20 -7.87431275E-03                    1_GWF-(1,26588)  1.16228287E-04                    1_GWF-(1,14800)
        171          4         21  7.32834335E-03                    1_GWF-(1,26420)  8.34190340E-05                    1_GWF-(1,14800)
        172          4         22  5.15677058E-03                    1_GWF-(1,26487)  2.16310753E-04                    1_GWF-(1,14801)
        173          4         23 -4.14906043E-03                    1_GWF-(1,26649) -3.20625999E-04                    1_GWF-(1,14801)
        174          4         24 -4.57923010E-03                    1_GWF-(1,26420) -3.80733573E-04                    1_GWF-(1,14800)
        175          4         25 -6.81331134E-03                    1_GWF-(1,26623) -3.32194875E-04                    1_GWF-(1,14801)
        176          4         26 -6.68305027E-03                    1_GWF-(1,26589) -1.55114357E-04                    1_GWF-(1,14800)
        177          4         27 -6.90972639E-03                    1_GWF-(1,26588) -9.89086789E-05                    1_GWF-(1,14800)
        178          4         28  6.89893198E-03                    1_GWF-(1,26588) -2.52237816E-04                    1_GWF-(1,14801)
        179          4         29 -4.28973701E-03                    1_GWF-(1,26544) -2.53326338E-04                    1_GWF-(1,14800)
        180          4         30  2.74606829E-03                    1_GWF-(1,26544)  2.10683988E-04                    1_GWF-(1,14800)
        181          4         31  4.14421479E-03                    1_GWF-(1,26486)  1.46826697E-04                    1_GWF-(1,14801)
        182          4         32 -3.57415328E-03                    1_GWF-(1,26422)  7.35099420E-05                    1_GWF-(1,14800)
        183          4         33  4.54718088E-03                    1_GWF-(1,26422)  3.59708124E-05                    1_GWF-(1,10966)
        184          4         34 -4.47173822E-03                    1_GWF-(1,26422)  9.11961649E-05                    1_GWF-(1,14801)
        185          4         35 -4.81503085E-03                    1_GWF-(1,26350)  1.41489336E-04                    1_GWF-(1,14800)
        186          4         36 -4.82338664E-03                    1_GWF-(1,26422)  1.62515797E-04                    1_GWF-(1,14801)
        187          4         37 -3.29959244E-03                    1_GWF-(1,26350)  1.55673750E-04                    1_GWF-(1,14800)
        188          4         38 -2.11693693E-03                    1_GWF-(1,26422)  1.52455270E-04                    1_GWF-(1,14801)
        189          4         39 -1.90520860E-03                    1_GWF-(1,22908)  1.29012562E-04                    1_GWF-(1,14800)
        190          4         40 -1.61563807E-03                    1_GWF-(1,22911)  1.18901426E-04                    1_GWF-(1,14801)
        191          4         41  1.69575589E-03                    1_GWF-(1,26394)  1.00522109E-04                    1_GWF-(1,14800)
        192          4         42 -1.52760005E-03                    1_GWF-(1,26663)  8.70630706E-05                    1_GWF-(1,14801)
        193          4         43 -1.61242201E-03                    1_GWF-(1,26674)  7.79137168E-05                    1_GWF-(1,14800)
        194          4         44  2.05548920E-03                    1_GWF-(1,26350)  6.33796507E-05                    1_GWF-(1,14801)
        195          4         45  1.66139545E-03                    1_GWF-(1,26218)  4.78247072E-05                    1_GWF-(1,10965)
        196          4         46  1.59291065E-03                    1_GWF-(1,26487)  7.19105870E-05                    1_GWF-(1,10966)
        197          4         47  1.00770877E-03                    1_GWF-(1,26673) -5.32444254E-05                    1_GWF-(1,10966)
        198          4         48  1.32125609E-03                    1_GWF-(1,26672)  6.69468718E-05                    1_GWF-(1,10966)
        199          4         49 -1.35276695E-03                    1_GWF-(1,26672)  4.59892122E-05                    1_GWF-(1,10961)
        200          4         50 -1.31369169E-03                    1_GWF-(1,26663)  5.24126603E-05                    1_GWF-(1,10966)
        201          5          1 -8.38951878E-03                    1_GWF-(1,11936)  2.03205516E-05                    1_GWF-(1,10965)
        202          5          2 -2.84167013E-03                    1_GWF-(1,11935)  3.53766910E-05                    1_GWF-(1,10966)
        203          5          3 -1.49917906E-03                    1_GWF-(1,11925)  2.89505263E-05                    1_GWF-(1,10965)
        204          5          4 -1.13376946E-03                    1_GWF-(1,11927)  4.75390259E-05                    1_GWF-(1,10966)
        205          5          5  1.10191453E-03                    1_GWF-(1,12190)  3.62601433E-05                    1_GWF-(1,10965)
        206          5          6  1.05167790E-03                    1_GWF-(1,11958)  4.32784886E-05                    1_GWF-(1,10966)
        207          5          7 -1.24060533E-03                    1_GWF-(1,26674)  2.41604657E-05                    1_GWF-(1,10961)
        208          5          8  1.25049882E-03                    1_GWF-(1,11977)  2.44292933E-05                    1_GWF-(1,10966)
        209          5          9  1.24219674E-03                    1_GWF-(1,11884) -1.13096397E-05                    1_GWF-(1,11923)
        210          5         10  1.17112911E-03                    1_GWF-(1,11983)  9.80102283E-06                    1_GWF-(1,10961)
        211          5         11  1.66992188E-03                    1_GWF-(1,26649)  2.27148901E-05                    1_GWF-(1,10966)
        212          5         12  2.09973036E-03                    1_GWF-(1,26622)  1.22435626E-05                    1_GWF-(1,10965)
        213          5         13  1.71503809E-03                    1_GWF-(1,26623)  7.00046706E-06                    1_GWF-(1,11924)
        214          5         14  1.18715846E-03                    1_GWF-(1,26622)  1.00861089E-05                    1_GWF-(1,10966)
        215          5         15  8.65718620E-04                    1_GWF-(1,26623) -1.93096557E-05                    1_GWF-(1,10966)
        216          5         16 -8.45322054E-04                    1_GWF-(1,12088)  2.80241885E-05                    1_GWF-(1,10966)
        217          5         17  8.12109453E-04                    1_GWF-(1,26544) -3.01936902E-05                    1_GWF-(1,10966)
        218          5         18  1.36149637E-03                    1_GWF-(1,26486) -1.67563577E-05                    1_GWF-(1,10965)
        219          5         19 -1.32750524E-03                    1_GWF-(1,26486) -4.80522026E-06                    1_GWF-(1,11920)
        220          5         20 -1.20810511E-03                    1_GWF-(1,26487) -2.05431183E-05                    1_GWF-(1,10966)
        221          5         21 -8.63141285E-04                    1_GWF-(1,26486)  2.74032226E-05                    1_GWF-(1,10966)
        222          5         22 -7.17329636E-04                    1_GWF-(1,26422) -3.89181801E-05                    1_GWF-(1,10966)
        223          5         23 -9.44045169E-04                    1_GWF-(1,26350)  3.30447281E-05                    1_GWF-(1,10966)
        224          5         24 -1.06822810E-03                    1_GWF-(1,26422) -3.35459572E-05                    1_GWF-(1,10966)
        225          5         25  9.75434248E-04                    1_GWF-(1,26422)  1.85184411E-05                    1_GWF-(1,10966)
        226          5         26  1.17645257E-03                    1_GWF-(1,26350) -1.20137728E-05                    1_GWF-(1,10966)
        227          5         27  1.18114769E-03                    1_GWF-(1,26422) -1.32672383E-05                    1_GWF-(1,10966)
        228          5         28  8.37946304E-04                    1_GWF-(1,26350)  2.15324513E-05                    1_GWF-(1,10966)
        229          5         29  6.15149143E-04                    1_GWF-(1,26486) -2.68059333E-05                    1_GWF-(1,10966)
        230          5         30 -7.13268359E-04                    1_GWF-(1,26588)  1.86083231E-05                    1_GWF-(1,10966)
        231          5         31  7.50607200E-04                    1_GWF-(1,26588) -1.00253565E-05                    1_GWF-(1,10966)
        232          5         32 -6.61010734E-04                    1_GWF-(1,26588) -8.12280414E-06                    1_GWF-(1,10966)
        233          5         33 -5.81939138E-04                    1_GWF-(1,26422)  1.49592847E-05                    1_GWF-(1,10966)
        234          5         34 -4.60385203E-04                    1_GWF-(1,26350) -2.04541362E-05                    1_GWF-(1,10966)
        235          5         35 -3.06784819E-04                    1_GWF-(1,26421)  2.06011280E-05                    1_GWF-(1,10966)
        236          5         36 -2.23047651E-04                    1_GWF-(1,23992) -1.79428154E-05                    1_GWF-(1,10966)
        237          5         37 -2.08403595E-04                     1_GWF-(1,2333)  1.68104499E-05                    1_GWF-(1,10966)
        238          5         38 -2.09572499E-04                      1_GWF-(1,519) -1.64944423E-05                    1_GWF-(1,10966)
        239          5         39  2.16148934E-04                    1_GWF-(1,26217)  1.56449493E-05                    1_GWF-(1,10966)
        240          5         40  2.65025639E-04                    1_GWF-(1,26218) -1.48674042E-05                    1_GWF-(1,10966)
        241          5         41 -2.97793084E-04                    1_GWF-(1,26218)  1.41970534E-05                    1_GWF-(1,10966)
        242          5         42 -4.47724650E-04                    1_GWF-(1,26217) -1.04073167E-05                    1_GWF-(1,10966)
        243          5         43 -4.85423939E-04                    1_GWF-(1,26665)  7.14533094E-06                    1_GWF-(1,10966)
        244          5         44  4.69248229E-04                    1_GWF-(1,26665)  2.36813500E-06                    1_GWF-(1,10960)
        245          5         45  5.48744558E-04                    1_GWF-(1,26666)  4.77384619E-06                    1_GWF-(1,10965)
        246          5         46  6.66641161E-04                    1_GWF-(1,26665)  9.03438187E-06                    1_GWF-(1,10966)
        247          5         47  4.79160942E-04                    1_GWF-(1,26666)  5.65012406E-06                    1_GWF-(1,10961)
        248          5         48  3.51938607E-04                    1_GWF-(1,26217)  5.11804434E-06                    1_GWF-(1,10966)
        249          5         49  3.44000794E-04                    1_GWF-(1,26218)  2.34998725E-06                    1_GWF-(1,10961)
        250          5         50 -3.01852597E-04                    1_GWF-(1,26218)  2.11682897E-06                    1_GWF-(1,10961)
        251          6          1 -3.00376090E-04                    1_GWF-(1,26217)  2.61820958E-06                    1_GWF-(1,10966)
        252          6          2 -3.25185052E-04                    1_GWF-(1,26218) -1.47727963E-06                    1_GWF-(1,15940)
        253          6          3 -2.81583876E-04                    1_GWF-(1,26217)  1.06139582E-06                    1_GWF-(1,11038)
        254          6          4 -2.03608245E-04                    1_GWF-(1,26543)  1.12102518E-06                    1_GWF-(1,10960)
        255          6          5 -2.83368081E-04                    1_GWF-(1,26588)  1.18592865E-06                    1_GWF-(1,10963)
        256          6          6 -2.80976453E-04                    1_GWF-(1,26543)  8.69632969E-07                    1_GWF-(1,15940)
        257          6          7 -2.15752595E-04                    1_GWF-(1,26487)  8.05923732E-07                    1_GWF-(1,11039)
        258          6          8 -1.43094252E-04                    1_GWF-(1,26420)  5.07759420E-07                    1_GWF-(1,11040)
        259          6          9 -1.51904988E-04                    1_GWF-(1,26623) -5.68207307E-07                    1_GWF-(1,11132)
        260          6         10  1.59950102E-04                    1_GWF-(1,26487) -5.67143812E-07                    1_GWF-(1,10967)
        261          6         11  1.29532517E-04                    1_GWF-(1,26622)  5.38875708E-07                    1_GWF-(1,14801)
        262          6         12  9.78620992E-05                    1_GWF-(1,26217)  7.38634411E-07                    1_GWF-(1,14800)
        263          6         13  1.07115620E-04                    1_GWF-(1,26218)  6.88963328E-07                    1_GWF-(1,14799)
        264          6         14  7.06348602E-05                    1_GWF-(1,26217)  5.02004295E-07                    1_GWF-(1,14798)
        265          6         15  8.92415847E-05                    1_GWF-(1,26622) -5.62478378E-07                    1_GWF-(1,15940)
        266          6         16  1.03848398E-04                    1_GWF-(1,26649)  4.08010382E-07                    1_GWF-(1,14801)
        267          6         17 -1.04418001E-04                    1_GWF-(1,26649)  4.11809664E-07                    1_GWF-(1,14800)
        268          6         18 -7.88397588E-05                    1_GWF-(1,26622)  6.57340012E-07                    1_GWF-(1,14799)
        269          6         19  4.69259702E-05                    1_GWF-(1,26622)  7.83816457E-07                    1_GWF-(1,15940)
        270          6         20  5.48508518E-05                    1_GWF-(1,25766) -1.09175830E-06                    1_GWF-(1,10966)
        271          6         21  5.45415202E-05                    1_GWF-(1,22704)  1.16943069E-06                    1_GWF-(1,15940)
        272          6         22  4.50596316E-05                    1_GWF-(1,25716) -1.15451835E-06                    1_GWF-(1,10966)
        273          6         23 -6.03129179E-05                    1_GWF-(1,26486)  1.21506543E-06                    1_GWF-(1,15940)
        274          6         24 -5.95526906E-05                    1_GWF-(1,26544) -1.15296497E-06                    1_GWF-(1,15940)
        275          6         25 -7.23142071E-05                    1_GWF-(1,26422)  7.86647267E-07                    1_GWF-(1,15940)
        276          6         26 -8.69438175E-05                    1_GWF-(1,26350) -5.16050145E-07                    1_GWF-(1,10966)
        277          6         27 -8.47617785E-05                    1_GWF-(1,26422) -3.24333895E-07                    1_GWF-(1,11200)
        278          6         28  8.66868040E-05                    1_GWF-(1,26422) -4.11740324E-07                    1_GWF-(1,10961)
        279          6         29  6.15389440E-05                    1_GWF-(1,26350) -5.30318649E-07                    1_GWF-(1,15940)
        280          6         30 -5.52427614E-05                    1_GWF-(1,26588)  4.11350752E-07                    1_GWF-(1,10966)
        281          6         31  5.84910526E-05                    1_GWF-(1,26588)  2.45992510E-07                    1_GWF-(1,10959)
        282          6         32 -5.89116656E-05                    1_GWF-(1,26588) -2.61137287E-07                    1_GWF-(1,10966)
        283          6         33  4.28956030E-05                    1_GWF-(1,26422)  4.55272724E-07                    1_GWF-(1,15940)
        284          6         34 -4.54383450E-05                    1_GWF-(1,26588) -5.39156808E-07                    1_GWF-(1,15940)
        285          6         35 -3.56266171E-05                    1_GWF-(1,26350)  5.44959857E-07                    1_GWF-(1,15940)
        286          6         36 -3.59601464E-05                    1_GWF-(1,26422) -5.33079749E-07                    1_GWF-(1,10966)
        287          6         37 -2.96562976E-05                    1_GWF-(1,26350)  4.25815227E-07                    1_GWF-(1,15940)
        288          6         38 -2.46540519E-05                    1_GWF-(1,26422)  4.00145490E-07                    1_GWF-(1,10965)
        289          6         39  2.17755047E-05                    1_GWF-(1,26649)  4.45235964E-07                    1_GWF-(1,10966)
        290          6         40  2.60795729E-05                    1_GWF-(1,26648)  3.12306020E-07                    1_GWF-(1,10961)
        291          6         41  3.43207235E-05                    1_GWF-(1,26649)  2.71690109E-07                    1_GWF-(1,10966)
        292          6         42  3.81245628E-05                    1_GWF-(1,26486)  2.37353084E-07                    1_GWF-(1,10966)
        293          6         43  3.45693502E-05                    1_GWF-(1,26487)  2.42738210E-07                    1_GWF-(1,10965)
        294          6         44  2.77830366E-05                    1_GWF-(1,26486)  3.57162832E-07                    1_GWF-(1,10966)
        295          6         45  2.10791969E-05                    1_GWF-(1,26544)  2.70998199E-07                    1_GWF-(1,10965)
        296          6         46  2.15957620E-05                    1_GWF-(1,26486)  2.09639548E-07                    1_GWF-(1,10966)
        297          6         47  1.81246741E-05                    1_GWF-(1,26648)  1.92281265E-07                    1_GWF-(1,11935)
        298          6         48  1.47598175E-05                    1_GWF-(1,26663)  2.02210180E-07                    1_GWF-(1,10966)
        299          6         49  1.70559367E-05                    1_GWF-(1,11943)  1.63989973E-07                    1_GWF-(1,10963)
        300          6         50  2.26233548E-05                    1_GWF-(1,11935)  2.67544865E-07                    1_GWF-(1,11935)
        301          7          1 -2.50129953E-05                    1_GWF-(1,11935)  1.66199385E-07                    1_GWF-(1,10966)
        302          7          2  1.81842024E-05                    1_GWF-(1,26649)  1.29136943E-07                    1_GWF-(1,10960)
        303          7          3 -2.14497956E-05                    1_GWF-(1,26486)  1.28938734E-07                    1_GWF-(1,11935)
        304          7          4 -2.41030445E-05                    1_GWF-(1,26487)  1.22813669E-07                    1_GWF-(1,10967)
        305          7          5 -2.12814599E-05                    1_GWF-(1,26486)  1.55500333E-07                    1_GWF-(1,10965)
        306          7          6 -1.77599913E-05                    1_GWF-(1,26487)  1.66601042E-07                    1_GWF-(1,10966)
        307          7          7 -2.01183748E-05                    1_GWF-(1,26674)  1.05589337E-07                    1_GWF-(1,11924)
        308          7          8  1.99982737E-05                    1_GWF-(1,26674) -1.27395563E-07                    1_GWF-(1,11936)
        309          7          9  2.15778553E-05                    1_GWF-(1,26663)  1.13343748E-07                    1_GWF-(1,10966)
        310          7         10  2.05338297E-05                    1_GWF-(1,26665)  1.03095066E-07                    1_GWF-(1,10955)
        311          7         11 -2.17273138E-05                    1_GWF-(1,26665)  1.09476119E-07                    1_GWF-(1,10967)
        312          7         12  1.72396139E-05                    1_GWF-(1,26622)  9.52351668E-08                    1_GWF-(1,10968)
        313          7         13  1.88325587E-05                    1_GWF-(1,26623) -7.94793879E-08                    1_GWF-(1,11922)
        314          7         14  1.55308474E-05                    1_GWF-(1,26622) -8.07002672E-08                    1_GWF-(1,10965)
        315          7         15  1.53312065E-05                    1_GWF-(1,26623)  6.50054433E-08                    1_GWF-(1,11932)
        316          7         16  1.56272528E-05                    1_GWF-(1,26543)  7.36301588E-08                    1_GWF-(1,10966)
        317          7         17  1.53619544E-05                    1_GWF-(1,26665) -6.11872122E-08                    1_GWF-(1,11917)
        318          7         18  1.24372513E-05                    1_GWF-(1,26543)  7.56751187E-08                    1_GWF-(1,11198)
        319          7         19  8.65002566E-06                    1_GWF-(1,25797)  8.98575146E-08                    1_GWF-(1,15940)
        320          7         20 -1.21264742E-05                    1_GWF-(1,26588) -1.06648044E-07                    1_GWF-(1,15940)
        321          7         21  1.28983302E-05                    1_GWF-(1,26588)  9.68933538E-08                    1_GWF-(1,15940)
        322          7         22 -1.63428845E-05                    1_GWF-(1,26588) -7.44177035E-08                    1_GWF-(1,10960)
        323          7         23 -1.44738654E-05                    1_GWF-(1,26589) -6.38185025E-08                    1_GWF-(1,11205)
        324          7         24 -1.67633989E-05                    1_GWF-(1,26588)  1.03161342E-07                    1_GWF-(1,15940)
        325          7         25 -8.73989659E-06                    1_GWF-(1,26543) -1.49863259E-07                    1_GWF-(1,15940)
        326          7         26  7.67579902E-06                    1_GWF-(1,26422)  1.74133434E-07                    1_GWF-(1,15940)
        327          7         27  8.25621740E-06                    1_GWF-(1,26350) -1.68901128E-07                    1_GWF-(1,15940)
        328          7         28  8.63262905E-06                    1_GWF-(1,26422)  1.47034080E-07                    1_GWF-(1,15940)
        329          7         29  8.84232454E-06                    1_GWF-(1,26350) -1.16543373E-07                    1_GWF-(1,15940)
        330          7         30  9.94421054E-06                    1_GWF-(1,26422)  7.22659485E-08                    1_GWF-(1,15940)
        331          7         31  9.81670197E-06                    1_GWF-(1,26350)  5.20294196E-08                    1_GWF-(1,14801)
        332          7         32  9.07651682E-06                    1_GWF-(1,26422)  5.43267514E-08                    1_GWF-(1,14801)
        333          7         33 -7.31552927E-06                    1_GWF-(1,26422)  4.86479408E-08                    1_GWF-(1,15940)
        334          7         34  7.67547558E-06                    1_GWF-(1,26486) -6.08660251E-08                    1_GWF-(1,15940)
        335          7         35  6.78756680E-06                    1_GWF-(1,26622)  5.36000430E-08                    1_GWF-(1,15940)
        336          7         36 -8.00277052E-06                    1_GWF-(1,26622)  3.31355018E-08                    1_GWF-(1,14799)
        337          7         37 -7.51562609E-06                    1_GWF-(1,26649) -3.98971828E-08                    1_GWF-(1,15940)
        338          7         38  5.54112468E-06                    1_GWF-(1,26649)  6.13771763E-08                    1_GWF-(1,15940)
        339          7         39 -4.15815151E-06                    1_GWF-(1,26350) -6.74239077E-08                    1_GWF-(1,15940)
        340          7         40 -3.89870337E-06                    1_GWF-(1,26421)  6.02088524E-08                    1_GWF-(1,15940)
        341          7         41 -4.71443436E-06                    1_GWF-(1,26544) -5.26559857E-08                    1_GWF-(1,15940)
        342          7         42 -7.59067481E-06                    1_GWF-(1,26486)  3.13764282E-08                    1_GWF-(1,14800)
        343          7         43 -6.31467898E-06                    1_GWF-(1,26487)  2.23852108E-08                    1_GWF-(1,11040)
        344          7         44  7.59143554E-06                    1_GWF-(1,26487) -3.07373278E-08                    1_GWF-(1,15940)
        345          7         45  6.99403805E-06                    1_GWF-(1,26486)  3.93846257E-08                    1_GWF-(1,15940)
        346          7         46  4.90915338E-06                    1_GWF-(1,26588)  3.18146664E-08                    1_GWF-(1,10963)
        347          7         47  3.75556286E-06                    1_GWF-(1,26420)  3.46958662E-08                    1_GWF-(1,10966)
        348          7         48  4.86705746E-06                    1_GWF-(1,26218)  3.19660949E-08                    1_GWF-(1,10961)
        349          7         49  4.98906658E-06                    1_GWF-(1,26217)  3.27013031E-08                    1_GWF-(1,10966)
        350          7         50  3.78437540E-06                    1_GWF-(1,26218)  2.93791901E-08                    1_GWF-(1,10961)
        351          8          1 -4.34272803E-06                    1_GWF-(1,26218)  3.55013933E-08                    1_GWF-(1,10966)
        352          8          2 -5.33681771E-06                    1_GWF-(1,26217) -2.03436061E-08                    1_GWF-(1,14800)
        353          8          3 -3.97668778E-06                    1_GWF-(1,26218)  2.15291781E-08                    1_GWF-(1,11212)
        354          8          4 -3.01027522E-06                    1_GWF-(1,26622)  2.43079835E-08                    1_GWF-(1,10966)
        355          8          5 -3.15021835E-06                    1_GWF-(1,26543)  1.91399841E-08                    1_GWF-(1,10960)
        356          8          6 -2.57895057E-06                    1_GWF-(1,26622) -1.51272402E-08                    1_GWF-(1,14801)
        357          8          7  2.63581106E-06                    1_GWF-(1,26622)  1.34186720E-08                    1_GWF-(1,14801)
        358          8          8  2.11810755E-06                    1_GWF-(1,26649) -1.53848460E-08                    1_GWF-(1,11198)
        359          8          9 -2.16324105E-06                    1_GWF-(1,26649)  1.21252798E-08                    1_GWF-(1,11065)
        360          8         10  2.36062935E-06                    1_GWF-(1,26649)  1.37428504E-08                    1_GWF-(1,14801)
        361          8         11 -2.29686877E-06                    1_GWF-(1,26665)  1.39590631E-08                    1_GWF-(1,14800)
        362          8         12  1.39935716E-06                    1_GWF-(1,26588)  1.18997720E-08                    1_GWF-(1,14801)
        363          8         13  1.28023853E-06                    1_GWF-(1,26217)  1.36228173E-08                    1_GWF-(1,14801)
        364          8         14  1.22897121E-06                    1_GWF-(1,26588)  1.52699068E-08                    1_GWF-(1,14800)
        365          8         15 -2.09007353E-06                    1_GWF-(1,26588)  1.41234189E-08                    1_GWF-(1,14801)
        366          8         16 -1.95212798E-06                    1_GWF-(1,26543)  1.18873560E-08                    1_GWF-(1,14800)
        367          8         17  1.81854771E-06                    1_GWF-(1,26543)  9.30084984E-09                    1_GWF-(1,14800)
        368          8         18  1.40271111E-06                    1_GWF-(1,26588)  1.58885356E-08                    1_GWF-(1,14801)
        369          8         19  1.23931081E-06                    1_GWF-(1,26486)  1.76937160E-08                    1_GWF-(1,14800)
        370          8         20  1.55235718E-06                    1_GWF-(1,26487)  1.54888500E-08                    1_GWF-(1,14801)
        371          8         21 -1.88019118E-06                    1_GWF-(1,26487)  1.20489336E-08                    1_GWF-(1,14800)
        372          8         22 -1.94738452E-06                    1_GWF-(1,26486) -7.44167040E-09                    1_GWF-(1,10967)
        373          8         23 -1.77273301E-06                    1_GWF-(1,26487)  1.06159216E-08                    1_GWF-(1,14960)
        374          8         24 -9.97634270E-07                    1_GWF-(1,26420) -1.67409494E-08                    1_GWF-(1,14801)
        375          9          1  8.84353770E-07                    1_GWF-(1,26420) -1.31361299E-08                    1_GWF-(1,14800)
 --------------------------------------------------------------------------------------------------------------------------------------


 UBDSV1 SAVING     FLOW-JA-FACE ON UNIT   1020 AT TIME STEP      1, STRESS PERIOD      1
 UBDSV06 SAVING       DATA-SPDIS IN MODEL ML               PACKAGE NPF             CONNECTED TO MODEL ML               PACKAGE NPF              ON UNIT   1020 AT TIME STEP      1, STRESS PERIOD      1
 UBDSV06 SAVING              WEL IN MODEL ML               PACKAGE ML              CONNECTED TO MODEL ML               PACKAGE WEL_0            ON UNIT   1020 AT TIME STEP      1, STRESS PERIOD      1
 UBDSV06 SAVING              DRN IN MODEL ML               PACKAGE ML              CONNECTED TO MODEL ML               PACKAGE DRN_0            ON UNIT   1020 AT TIME STEP      1, STRESS PERIOD      1
 UBDSV06 SAVING              RIV IN MODEL ML               PACKAGE ML              CONNECTED TO MODEL ML               PACKAGE RIV_0            ON UNIT   1020 AT TIME STEP      1, STRESS PERIOD      1
 UBDSV06 SAVING              GHB IN MODEL ML               PACKAGE ML              CONNECTED TO MODEL ML               PACKAGE GHB_0            ON UNIT   1020 AT TIME STEP      1, STRESS PERIOD      1
 UBDSV06 SAVING              RCH IN MODEL ML               PACKAGE ML              CONNECTED TO MODEL ML               PACKAGE RCHA_0           ON UNIT   1020 AT TIME STEP      1, STRESS PERIOD      1

 HEAD WILL BE SAVED ON UNIT 1021 AT END OF TIME STEP    1, STRESS PERIOD    1


  VOLUME BUDGET FOR ENTIRE MODEL AT END OF TIME STEP    1, STRESS PERIOD   1
  ---------------------------------------------------------------------------------------------------

     CUMULATIVE VOLUME      L**3       RATES FOR THIS TIME STEP      L**3/T          PACKAGE NAME    
     ------------------                 ------------------------                     ----------------

           IN:                                      IN:
           ---                                      ---
                 WEL =           0.0000                   WEL =           0.0000     WEL_0           
                 DRN =           0.0000                   DRN =           0.0000     DRN_0           
                 RIV =           5.5683                   RIV =           0.7955     RIV_0           
                 GHB =           7.9634                   GHB =           1.1376     GHB_0           
                 RCH =           5.7845                   RCH =           0.8264     RCHA_0          

            TOTAL IN =          19.3162              TOTAL IN =           2.7595

          OUT:                                     OUT:
          ----                                     ----
                 WEL =           1.0423                   WEL =           0.1489     WEL_0           
                 DRN =           1.2765                   DRN =           0.1824     DRN_0           
                 RIV =          16.1495                   RIV =           2.3071     RIV_0           
                 GHB =           0.8479                   GHB =           0.1211     GHB_0           
                 RCH =           0.0000                   RCH =           0.0000     RCHA_0          

           TOTAL OUT =          19.3162             TOTAL OUT =           2.7595

            IN - OUT =      -4.2047E-06              IN - OUT =      -6.0067E-07

 PERCENT DISCREPANCY =          -0.00     PERCENT DISCREPANCY =          -0.00




         TIME SUMMARY AT END OF TIME STEP    1 IN STRESS PERIOD    1
                    SECONDS     MINUTES      HOURS       DAYS        YEARS
                    -----------------------------------------------------------
   TIME STEP LENGTH  7.0000     0.11667     1.94444E-03 8.10185E-05 2.21817E-07
 STRESS PERIOD TIME  7.0000     0.11667     1.94444E-03 8.10185E-05 2.21817E-07
         TOTAL TIME  7.0000     0.11667     1.94444E-03 8.10185E-05 2.21817E-07


end timestep

