                                   MODFLOW 6
                U.S. GEOLOGICAL SURVEY MODULAR HYDROLOGIC MODEL
                          GROUNDWATER FLOW MODEL (GWF)
                            VERSION 6.2.2 07/30/2021

   MODFLOW 6 compiled Jul 31 2021 14:22:53 with IFORT compiler (ver. 19.10.3)

This software has been approved for release by the U.S. Geological 
Survey (USGS). Although the software has been subjected to rigorous 
review, the USGS reserves the right to update the software as needed 
pursuant to further analysis and review. No warranty, expressed or 
implied, is made by the USGS or the U.S. Government as to the 
functionality of the software and related material nor shall the 
fact of release constitute any such warranty. Furthermore, the 
software is released on condition that neither the USGS nor the U.S. 
Government shall be held liable for any damages resulting from its 
authorized or unauthorized use. Also refer to the USGS Water 
Resources Software User Rights Notice for complete use, copyright, 
and distribution information.


System command used to initiate simulation:
mf6

MODFLOW was compiled using uniform precision.

Real Variables
  KIND: 8
  TINY (smallest non-zero value):    2.225074-308
  HUGE (largest value):    1.797693+308
  PRECISION: 15
  BIT SIZE: 64

Integer Variables
  KIND: 4
  HUGE (largest value): 2147483647
  BIT SIZE: 32

Long Integer Variables
  KIND: 8
  HUGE (largest value): 9223372036854775807
  BIT SIZE: 64

Logical Variables
  KIND: 4
  BIT SIZE: 32
 

 OPENED ./ml.disv
 FILE TYPE:DISV6                  UNIT 1005   STATUS:OLD                 
 FORMAT:FORMATTED              ACCESS:SEQUENTIAL          
 ACTION:READ                


 OPENED ./ml.ic
 FILE TYPE:IC6                    UNIT 1006   STATUS:OLD                 
 FORMAT:FORMATTED              ACCESS:SEQUENTIAL          
 ACTION:READ                


 OPENED ./ml.npf
 FILE TYPE:NPF6                   UNIT 1007   STATUS:OLD                 
 FORMAT:FORMATTED              ACCESS:SEQUENTIAL          
 ACTION:READ                


 OPENED ./ml.ghb
 FILE TYPE:GHB6                   UNIT 1008   STATUS:OLD                 
 FORMAT:FORMATTED              ACCESS:SEQUENTIAL          
 ACTION:READ                


 OPENED ./ml.rcha
 FILE TYPE:RCH6                   UNIT 1009   STATUS:OLD                 
 FORMAT:FORMATTED              ACCESS:SEQUENTIAL          
 ACTION:READ                


 OPENED ./ml.obs
 FILE TYPE:OBS6                   UNIT 1010   STATUS:OLD                 
 FORMAT:FORMATTED              ACCESS:SEQUENTIAL          
 ACTION:READ                


 OPENED ./ml.oc
 FILE TYPE:OC6                    UNIT 1011   STATUS:OLD                 
 FORMAT:FORMATTED              ACCESS:SEQUENTIAL          
 ACTION:READ                


 OPENED ml.wel
 FILE TYPE:WEL6                   UNIT 1012   STATUS:OLD                 
 FORMAT:FORMATTED              ACCESS:SEQUENTIAL          
 ACTION:READ                


 OPENED ml.drn
 FILE TYPE:DRN6                   UNIT 1013   STATUS:OLD                 
 FORMAT:FORMATTED              ACCESS:SEQUENTIAL          
 ACTION:READ                


 OPENED ml.riv
 FILE TYPE:RIV6                   UNIT 1014   STATUS:OLD                 
 FORMAT:FORMATTED              ACCESS:SEQUENTIAL          
 ACTION:READ                


 DISV -- VERTEX GRID DISCRETIZATION PACKAGE, VERSION 1 : 12/23/2015 - INPUT READ FROM UNIT 1005


 # File generated by Flopy version 3.3.5 on 06/01/2022 at 18:12:09.

 PROCESSING DISCRETIZATION OPTIONS
    MODEL LENGTH UNIT IS METERS
    XORIGIN SPECIFIED AS     405575.681000000    
    YORIGIN SPECIFIED AS     6423306.54000000    
 END OF DISCRETIZATION OPTIONS

 PROCESSING DISCRETIZATION DIMENSIONS
   NLAY = 1
   NCPL = 26674
   NVERT = 27090
 END OF DISCRETIZATION DIMENSIONS

 PROCESSING GRIDDATA
 END PROCESSING GRIDDATA

 PROCESSING VERTICES
   SUCCESSFULLY READ 27090 (X,Y) COORDINATES
   MINIMUM X COORDINATE =     405575.681000000    
   MAXIMUM X COORDINATE =     413975.681000000    
   MINIMUM Y COORDINATE =     6423306.54000000    
   MAXIMUM Y COORDINATE =     6432506.54000000    
 END PROCESSING VERTICES

 PROCESSING CELL2D
   SUCCESSFULLY READ 26674 CELL2D INFORMATION ENTRIES
   MINIMUM X CELL CENTER =     405675.681000000    
   MAXIMUM X CELL CENTER =     413875.681000000    
   MINIMUM Y CELL CENTER =     6423406.54000000    
   MAXIMUM Y CELL CENTER =     6432406.54000000    
   MAXIMUM NUMBER OF CELL2D VERTICES IS 6 FOR CELL 208
 END PROCESSING VERTICES

 NPF -- NODE PROPERTY FLOW PACKAGE, VERSION 1, 3/30/2015 INPUT READ FROM UNIT 1007


 # File generated by Flopy version 3.3.5 on 06/01/2022 at 18:12:12.
 PROCESSING NPF OPTIONS
    CELL-BY-CELL FLOW INFORMATION WILL BE SAVED TO BINARY FILE WHENEVER ICBCFL IS NOT ZERO.
    SPECIFIC DISCHARGE WILL BE CALCULATED AT CELL CENTERS AND WRITTEN TO DATA-SPDIS IN BUDGET FILE WHEN REQUESTED.
 END OF NPF OPTIONS

 WEL   -- WEL PACKAGE, VERSION 8, 2/22/2014 INPUT READ FROM UNIT 1012
 # File generated by Flopy version 3.3.5 on 06/01/2022 at 18:12:12.

 PROCESSING WEL OPTIONS
    WEL BOUNDARIES HAVE NAMES IN LAST COLUMN.
    FLOWS WILL BE SAVED TO BUDGET FILE SPECIFIED IN OUTPUT CONTROL
 END OF WEL OPTIONS

 PROCESSING WEL DIMENSIONS
    MAXBOUND =       9
 END OF WEL DIMENSIONS

 DRN   -- DRN PACKAGE, VERSION 8, 2/22/2014 INPUT READ FROM UNIT 1013
 # File generated by Flopy version 3.3.5 on 06/01/2022 at 18:12:12.

 PROCESSING DRN OPTIONS
    DRN BOUNDARIES HAVE NAMES IN LAST COLUMN.
    FLOWS WILL BE SAVED TO BUDGET FILE SPECIFIED IN OUTPUT CONTROL

 OPENED ml.drn.obs
 FILE TYPE:OBS   UNIT 1016   STATUS:OLD                 
 FORMAT:FORMATTED              ACCESS:SEQUENTIAL          
 ACTION:READ                

 END OF DRN OPTIONS

 PROCESSING DRN DIMENSIONS
    MAXBOUND =     133
 END OF DRN DIMENSIONS

 RIV   -- RIV PACKAGE, VERSION 8, 2/22/2014 INPUT READ FROM UNIT 1014
 # File generated by Flopy version 3.3.5 on 06/01/2022 at 18:12:12.

 PROCESSING RIV OPTIONS
    AUXILIARY RIV VARIABLE: FID             
    RIV BOUNDARIES HAVE NAMES IN LAST COLUMN.
    FLOWS WILL BE SAVED TO BUDGET FILE SPECIFIED IN OUTPUT CONTROL
 END OF RIV OPTIONS

 PROCESSING RIV DIMENSIONS
    MAXBOUND =     794
 END OF RIV DIMENSIONS

 GHB   -- GHB PACKAGE, VERSION 8, 2/22/2014 INPUT READ FROM UNIT 1008
 # File generated by Flopy version 3.3.5 on 06/01/2022 at 18:12:12.

 PROCESSING GHB OPTIONS
    GHB BOUNDARIES HAVE NAMES IN LAST COLUMN.
    FLOWS WILL BE SAVED TO BUDGET FILE SPECIFIED IN OUTPUT CONTROL
 END OF GHB OPTIONS

 PROCESSING GHB DIMENSIONS
    MAXBOUND =     153
 END OF GHB DIMENSIONS

 RCH   -- RCH PACKAGE, VERSION 8, 2/22/2014 INPUT READ FROM UNIT 1009
 # File generated by Flopy version 3.3.5 on 06/01/2022 at 18:12:12.

 PROCESSING RCH OPTIONS
    RECHARGE INPUT WILL BE READ AS ARRAY(S).
    FLOWS WILL BE SAVED TO BUDGET FILE SPECIFIED IN OUTPUT CONTROL
 END OF RCH OPTIONS

 IC -- INITIAL CONDITIONS PACKAGE, VERSION 8, 3/28/2015 INPUT READ FROM UNIT 1006
 # File generated by Flopy version 3.3.5 on 06/01/2022 at 18:12:12.
 PROCESSING GRIDDATA

     INITIAL HEAD =   15.00000    
 END PROCESSING GRIDDATA
 PROCESSING GRIDDATA

                ICELLTYPE = 0

 OPENED ../com_ext/k.txt
 FILE TYPE:OPEN/CLOSE   UNIT 1017   STATUS:OLD                 
 FORMAT:FORMATTED              ACCESS:SEQUENTIAL          
 ACTION:READ                

 K33 not provided.  Assuming K33 = K.
 K22 not provided.  Assuming K22 = K.
 END PROCESSING GRIDDATA

The observation utility is active for "ML"
 # File generated by Flopy version 3.3.5 on 06/01/2022 at 18:12:12.

Processing observation options:

Text output number of digits of precision set to: 10
The PRINT_INPUT option has been specified.


 OBSERVATIONS READ FROM FILE "ml.obs"
 ----------------------------------------------------------------------------------------------------------------------------------------------------------------------------------------------------------------------------
 NAME                                     TYPE                                       TIME         LOCATION DATA                              OUTPUT FILENAME                                                                 
 ----------------------------------------------------------------------------------------------------------------------------------------------------------------------------------------------------------------------------
 PRG                                      CONTINUOUS  HEAD                           ALL TIMES    "1 16523"                                  sim/hds.csv                                                                     
 P8                                       CONTINUOUS  HEAD                           ALL TIMES    "1 10323"                                  sim/hds.csv                                                                     
 P24                                      CONTINUOUS  HEAD                           ALL TIMES    "1 9594"                                   sim/hds.csv                                                                     
 P25                                      CONTINUOUS  HEAD                           ALL TIMES    "1 13966"                                  sim/hds.csv                                                                     
 P32                                      CONTINUOUS  HEAD                           ALL TIMES    "1 15787"                                  sim/hds.csv                                                                     
 P33                                      CONTINUOUS  HEAD                           ALL TIMES    "1 15825"                                  sim/hds.csv                                                                     
 PF                                       CONTINUOUS  HEAD                           ALL TIMES    "1 21048"                                  sim/hds.csv                                                                     
 PH                                       CONTINUOUS  HEAD                           ALL TIMES    "1 20781"                                  sim/hds.csv                                                                     
 PZHM1                                    CONTINUOUS  HEAD                           ALL TIMES    "1 14521"                                  sim/hds.csv                                                                     
 P26                                      CONTINUOUS  HEAD                           ALL TIMES    "1 13141"                                  sim/hds.csv                                                                     
 P27                                      CONTINUOUS  HEAD                           ALL TIMES    "1 8465"                                   sim/hds.csv                                                                     
 P28                                      CONTINUOUS  HEAD                           ALL TIMES    "1 8924"                                   sim/hds.csv                                                                     
 P29                                      CONTINUOUS  HEAD                           ALL TIMES    "1 4524"                                   sim/hds.csv                                                                     
 P30                                      CONTINUOUS  HEAD                           ALL TIMES    "1 5255"                                   sim/hds.csv                                                                     
 R20                                      CONTINUOUS  HEAD                           ALL TIMES    "1 10676"                                  sim/hds.csv                                                                     
 R21                                      CONTINUOUS  HEAD                           ALL TIMES    "1 10403"                                  sim/hds.csv                                                                     
 P34                                      CONTINUOUS  HEAD                           ALL TIMES    "1 15131"                                  sim/hds.csv                                                                     
 P37                                      CONTINUOUS  HEAD                           ALL TIMES    "1 15755"                                  sim/hds.csv                                                                     
 P38                                      CONTINUOUS  HEAD                           ALL TIMES    "1 15045"                                  sim/hds.csv                                                                     
 P39                                      CONTINUOUS  HEAD                           ALL TIMES    "1 9637"                                   sim/hds.csv                                                                     
 P40                                      CONTINUOUS  HEAD                           ALL TIMES    "1 9312"                                   sim/hds.csv                                                                     
 AP1                                      CONTINUOUS  HEAD                           ALL TIMES    "1 9702"                                   sim/hds.csv                                                                     
 RCK1                                     CONTINUOUS  HEAD                           ALL TIMES    "1 15900"                                  sim/hds.csv                                                                     
 RCK2                                     CONTINUOUS  HEAD                           ALL TIMES    "1 15199"                                  sim/hds.csv                                                                     
 P23                                      CONTINUOUS  HEAD                           ALL TIMES    "1 6409"                                   sim/hds.csv                                                                     
 ----------------------------------------------------------------------------------------------------------------------------------------------------------------------------------------------------------------------------


    BINARY GRID INFORMATION WILL BE WRITTEN TO:
      UNIT NUMBER: 1019
      FILE NAME: /srv/common/ptrack/case_study/pst/ml_07/./ml.disv.grb

 OPENED /srv/common/ptrack/case_study/pst/ml_07/./ml.disv.grb
 FILE TYPE:DATA(BINARY)   UNIT 1019   STATUS:REPLACE             
 FORMAT:UNFORMATTED            ACCESS:STREAM              
 ACTION:READWRITE           

      THE LAST TIME STEP WILL BE PRINTED
      THE LAST TIME STEP WILL BE PRINTED
 # File generated by Flopy version 3.3.5 on 06/01/2022 at 18:12:12.

 PROCESSING OC OPTIONS

    BUDGET INFORMATION WILL BE WRITTEN TO:
      UNIT NUMBER: 1020
      FILE NAME: ml.cbc

 OPENED ml.cbc
 FILE TYPE:DATA(BINARY)   UNIT 1020   STATUS:REPLACE             
 FORMAT:UNFORMATTED            ACCESS:STREAM              
 ACTION:READWRITE           

    HEAD INFORMATION WILL BE WRITTEN TO:
      UNIT NUMBER: 1021
      FILE NAME: ml.hds

 OPENED ml.hds
 FILE TYPE:DATA(BINARY)   UNIT 1021   STATUS:REPLACE             
 FORMAT:UNFORMATTED            ACCESS:STREAM              
 ACTION:READWRITE           

 END OF OC OPTIONS

The observation utility is active for "DRN_0"
 # File generated by Flopy version 3.3.5 on 06/01/2022 at 18:12:12.

Processing observation options:



start timestep kper="1" kstp="1" mode="normal"


 BEGIN READING OUTPUT CONTROL FOR STRESS PERIOD 1
      THE LAST TIME STEP WILL BE SAVED
      THE LAST TIME STEP WILL BE SAVED

 END READING OUTPUT CONTROL FOR STRESS PERIOD 1

 OPENED ext/wel_spd_07_1.txt
 FILE TYPE:OPEN/CLOSE   UNIT 1023   STATUS:OLD                 
 FORMAT:FORMATTED              ACCESS:SEQUENTIAL          
 ACTION:READ                


 OPENED ext/drn_spd_07_1.txt
 FILE TYPE:OPEN/CLOSE   UNIT 1024   STATUS:OLD                 
 FORMAT:FORMATTED              ACCESS:SEQUENTIAL          
 ACTION:READ                


 OPENED ext/riv_spd_07_1.txt
 FILE TYPE:OPEN/CLOSE   UNIT 1025   STATUS:OLD                 
 FORMAT:FORMATTED              ACCESS:SEQUENTIAL          
 ACTION:READ                


 OPENED ../com_ext/ghb_spd_1.txt
 FILE TYPE:OPEN/CLOSE   UNIT 1026   STATUS:OLD                 
 FORMAT:FORMATTED              ACCESS:SEQUENTIAL          
 ACTION:READ                


 OPENED ../com_ext/rech_spd_1.txt
 FILE TYPE:OPEN/CLOSE   UNIT 1027   STATUS:OLD                 
 FORMAT:FORMATTED              ACCESS:SEQUENTIAL          
 ACTION:READ                


 SLN_1 INNER ITERATION SUMMARY
 --------------------------------------------------------------------------------------------------------------------------------------
      TOTAL      OUTER      INNER                                                            MAXIMUM                                   
  ITERATION  ITERATION  ITERATION  MAXIMUM CHANGE      MAXIMUM CHANGE MODEL-(CELLID)        RESIDUAL    MAXIMUM RESIDUAL MODEL-(CELLID)
 --------------------------------------------------------------------------------------------------------------------------------------
          1          1          1       22.573144                    1_GWF-(1,26517)      0.20900492                    1_GWF-(1,11179)
          2          1          2       38.982304                    1_GWF-(1,26516)     -0.32543894                    1_GWF-(1,11179)
          3          1          3       50.190727                    1_GWF-(1,26515)     -0.25700446                    1_GWF-(1,11161)
          4          1          4       30.085260                    1_GWF-(1,26513)      0.21370476                    1_GWF-(1,11208)
          5          1          5       25.543028                    1_GWF-(1,26647)      0.18083360                    1_GWF-(1,11202)
          6          1          6       30.121708                    1_GWF-(1,26649)     -0.19704809                    1_GWF-(1,11207)
          7          1          7       23.280819                    1_GWF-(1,26622)      0.18943285                    1_GWF-(1,10966)
          8          1          8       17.779891                    1_GWF-(1,26623)      0.16491067                    1_GWF-(1,10960)
          9          1          9       13.927765                    1_GWF-(1,26543)  8.41083179E-02                    1_GWF-(1,10960)
         10          1         10       13.350251                    1_GWF-(1,26486)  8.75810866E-02                    1_GWF-(1,10967)
         11          1         11       9.9198355                    1_GWF-(1,26487)      0.12018557                    1_GWF-(1,10966)
         12          1         12       6.9727608                    1_GWF-(1,26350)      0.10039458                    1_GWF-(1,10960)
         13          1         13       6.0151685                    1_GWF-(1,26422)  6.79820762E-02                    1_GWF-(1,10960)
         14          1         14       4.1065064                    1_GWF-(1,26350)  6.51535065E-02                    1_GWF-(1,10966)
         15          1         15       2.7401846                    1_GWF-(1,26218)  9.07703675E-02                    1_GWF-(1,10966)
         16          1         16      -2.5868832                    1_GWF-(1,26622)  7.41269494E-02                    1_GWF-(1,10960)
         17          1         17      -3.3745702                    1_GWF-(1,26623)  5.07805389E-02                    1_GWF-(1,11206)
         18          1         18      -4.3080321                    1_GWF-(1,26543)  6.02050193E-02                    1_GWF-(1,10967)
         19          1         19      -5.7322968                    1_GWF-(1,26588)  7.01679609E-02                    1_GWF-(1,10966)
         20          1         20      -4.4842908                    1_GWF-(1,26543)  4.86561874E-02                    1_GWF-(1,10960)
         21          1         21      -4.0971674                    1_GWF-(1,26487) -4.48554738E-02                    1_GWF-(1,11194)
         22          1         22      -4.3605586                    1_GWF-(1,26486)  4.30641949E-02                    1_GWF-(1,10966)
         23          1         23      -3.9937833                    1_GWF-(1,26487)  3.56338139E-02                    1_GWF-(1,10960)
         24          1         24       4.0450224                    1_GWF-(1,11577) -3.22221421E-02                    1_GWF-(1,11194)
         25          1         25       3.5970046                    1_GWF-(1,26420) -3.09674027E-02                    1_GWF-(1,11109)
         26          1         26       3.9093746                    1_GWF-(1,26487) -3.98669268E-02                    1_GWF-(1,11206)
         27          1         27       3.7468201                    1_GWF-(1,26420)  4.06726037E-02                    1_GWF-(1,11206)
         28          1         28       2.6777450                    1_GWF-(1,26543)  3.64298041E-02                    1_GWF-(1,14799)
         29          1         29       2.3078291                    1_GWF-(1,11706)  3.35347542E-02                    1_GWF-(1,10966)
         30          1         30       2.0691311                    1_GWF-(1,26422)  2.97595566E-02                    1_GWF-(1,11206)
         31          1         31      -2.3141205                    1_GWF-(1,11707) -4.21498109E-02                    1_GWF-(1,11206)
         32          1         32       2.6588345                    1_GWF-(1,26422)  3.63578118E-02                    1_GWF-(1,14799)
         33          1         33      -2.6257856                    1_GWF-(1,26422)  3.33738346E-02                    1_GWF-(1,14799)
         34          1         34      -2.6299340                    1_GWF-(1,26350) -3.26441710E-02                    1_GWF-(1,10966)
         35          1         35      -2.5337753                    1_GWF-(1,26422)  2.59276228E-02                    1_GWF-(1,14799)
         36          1         36      -1.9759893                    1_GWF-(1,26544)  2.90342932E-02                    1_GWF-(1,14799)
         37          1         37      -1.5107292                    1_GWF-(1,26486)  3.00142292E-02                    1_GWF-(1,14799)
         38          1         38      -1.6797629                    1_GWF-(1,11621) -2.52252538E-02                    1_GWF-(1,10960)
         39          1         39      -1.4679216                    1_GWF-(1,26649)  3.22015620E-02                    1_GWF-(1,11206)
         40          1         40       1.8499117                    1_GWF-(1,11621) -4.17705131E-02                    1_GWF-(1,11206)
         41          1         41      -1.1471446                    1_GWF-(1,11486)  4.13945949E-02                    1_GWF-(1,11206)
         42          1         42      -1.5800589                    1_GWF-(1,11619) -4.61849458E-02                    1_GWF-(1,11206)
         43          1         43       1.2881811                    1_GWF-(1,26350)  4.22220482E-02                    1_GWF-(1,11206)
         44          1         44       1.2575360                    1_GWF-(1,26217) -4.55829009E-02                    1_GWF-(1,11206)
         45          1         45      -1.4397101                    1_GWF-(1,11622)  4.33212540E-02                    1_GWF-(1,11206)
         46          1         46      0.88599013                    1_GWF-(1,11384)  4.36335856E-02                    1_GWF-(1,14801)
         47          1         47      -1.2253222                    1_GWF-(1,26217)  6.33598193E-02                    1_GWF-(1,14799)
         48          1         48      -1.3125612                    1_GWF-(1,26218)  5.28304439E-02                    1_GWF-(1,14801)
         49          1         49      -1.4876852                    1_GWF-(1,26217)  8.64392447E-02                    1_GWF-(1,14799)
         50          1         50      -1.6342822                    1_GWF-(1,26218)      0.11249809                    1_GWF-(1,14801)
         51          2          1      -167.33811                    1_GWF-(1,26519)     -0.24202679                    1_GWF-(1,26458)
         52          2          2      -63.681290                    1_GWF-(1,26513)  5.82475309E-02                    1_GWF-(1,26458)
         53          2          3      -38.631516                    1_GWF-(1,26637)  6.32398679E-02                    1_GWF-(1,26516)
         54          2          4      -35.394897                    1_GWF-(1,26665)  5.33451274E-02                    1_GWF-(1,14801)
         55          2          5      -23.435549                    1_GWF-(1,26622)  7.61023916E-02                    1_GWF-(1,14799)
         56          2          6      -19.527253                    1_GWF-(1,26588)  7.37272255E-02                    1_GWF-(1,14801)
         57          2          7      -18.652501                    1_GWF-(1,26543)      0.11201269                    1_GWF-(1,14799)
         58          2          8      -13.439513                    1_GWF-(1,26486)      0.11609461                    1_GWF-(1,14801)
         59          2          9      -9.8651784                    1_GWF-(1,26487)      0.10984664                    1_GWF-(1,14799)
         60          2         10      -7.3399081                    1_GWF-(1,26421)  4.97893418E-02                    1_GWF-(1,14801)
         61          2         11      -7.2396277                    1_GWF-(1,26350)  2.27526183E-02                    1_GWF-(1,14801)
         62          2         12      -4.3795666                    1_GWF-(1,26217)  4.81014560E-02                    1_GWF-(1,14799)
         63          2         13      -2.5363120                    1_GWF-(1,26622)  5.51833474E-02                    1_GWF-(1,14801)
         64          2         14      -1.8367578                    1_GWF-(1,26623)  4.36323522E-02                    1_GWF-(1,14799)
         65          2         15      -1.7674341                    1_GWF-(1,26622)  1.84106885E-02                    1_GWF-(1,14801)
         66          2         16      -1.6442029                    1_GWF-(1,25728)  4.77510894E-02                    1_GWF-(1,14801)
         67          2         17       2.1464220                    1_GWF-(1,26350)  9.27111119E-02                    1_GWF-(1,14799)
         68          2         18       1.9565922                    1_GWF-(1,26422)  8.41344899E-02                    1_GWF-(1,14801)
         69          2         19       2.0896834                    1_GWF-(1,26588)  7.35296018E-02                    1_GWF-(1,14799)
         70          2         20       1.9162175                    1_GWF-(1,26543)  1.34068024E-02                    1_GWF-(1,14801)
         71          2         21       2.0504072                    1_GWF-(1,26588)  7.59873528E-02                    1_GWF-(1,14801)
         72          2         22       2.3819794                    1_GWF-(1,26543)      0.12876068                    1_GWF-(1,14799)
         73          2         23       1.8683360                    1_GWF-(1,26544)      0.14907046                    1_GWF-(1,14801)
         74          2         24      -2.8387253                    1_GWF-(1,26487)      0.11363403                    1_GWF-(1,14799)
         75          2         25      -3.4145301                    1_GWF-(1,26486)  1.87770549E-02                    1_GWF-(1,14799)
         76          2         26      -3.6134119                    1_GWF-(1,26487)      0.13575528                    1_GWF-(1,14801)
         77          2         27      -2.5200138                    1_GWF-(1,26420)      0.23596484                    1_GWF-(1,14799)
         78          2         28       1.8589221                    1_GWF-(1,26217)      0.21070317                    1_GWF-(1,14801)
         79          2         29      -1.5278509                    1_GWF-(1,26327)      0.21651437                    1_GWF-(1,14799)
         80          2         30       1.5657335                    1_GWF-(1,26420)      0.18703520                    1_GWF-(1,14801)
         81          2         31      -1.1481162                    1_GWF-(1,26674)      0.17483226                    1_GWF-(1,14799)
         82          2         32      -1.1024379                    1_GWF-(1,26422)      0.14968168                    1_GWF-(1,14801)
         83          2         33      -1.1440481                    1_GWF-(1,26350)      0.12167120                    1_GWF-(1,14800)
         84          2         34      0.97220531                    1_GWF-(1,26350)      0.10809631                    1_GWF-(1,14801)
         85          2         35       1.3706709                    1_GWF-(1,26422)  7.63605259E-02                    1_GWF-(1,14800)
         86          2         36      0.90398144                    1_GWF-(1,26218)  5.26085536E-02                    1_GWF-(1,14801)
         87          2         37     -0.73717821                    1_GWF-(1,26350)  2.88500232E-02                    1_GWF-(1,14800)
         88          2         38      0.72318225                    1_GWF-(1,26350)  4.80494702E-02                    1_GWF-(1,14799)
         89          2         39      0.88437566                    1_GWF-(1,26422)  6.17492720E-02                    1_GWF-(1,14798)
         90          2         40     -0.90892888                    1_GWF-(1,26486)      0.12685567                    1_GWF-(1,14799)
         91          2         41     -0.96046717                    1_GWF-(1,26420)      0.13870949                    1_GWF-(1,14801)
         92          2         42     -0.82913879                    1_GWF-(1,26421)      0.18538665                    1_GWF-(1,14799)
         93          2         43     -0.93778124                    1_GWF-(1,26350)      0.17100996                    1_GWF-(1,14801)
         94          2         44     -0.71163591                    1_GWF-(1,26218)      0.16793238                    1_GWF-(1,14799)
         95          2         45      -1.0123530                    1_GWF-(1,26420)      0.13801108                    1_GWF-(1,14801)
         96          2         46     -0.68288728                    1_GWF-(1,26486)      0.10002912                    1_GWF-(1,14800)
         97          2         47     -0.68467284                    1_GWF-(1,26663)  9.47386737E-02                    1_GWF-(1,14801)
         98          2         48     -0.57911029                    1_GWF-(1,26623)  7.04122825E-02                    1_GWF-(1,14800)
         99          2         49     -0.64642514                    1_GWF-(1,22783)  7.33114852E-02                    1_GWF-(1,14801)
        100          2         50     -0.52668620                    1_GWF-(1,26604)  6.55392487E-02                    1_GWF-(1,14800)
        101          3          1     -0.62239194                    1_GWF-(1,11440)  2.71212051E-02                    1_GWF-(1,14801)
        102          3          2      0.54832359                    1_GWF-(1,22783)  8.77890345E-02                    1_GWF-(1,14800)
        103          3          3      0.53707799                    1_GWF-(1,26623)      0.11024294                    1_GWF-(1,14801)
        104          3          4      0.57679759                    1_GWF-(1,26649)  7.08964999E-02                    1_GWF-(1,14800)
        105          3          5     -0.67170443                    1_GWF-(1,11438)      0.11407034                    1_GWF-(1,14801)
        106          3          6      0.72305738                    1_GWF-(1,11438)      0.13956184                    1_GWF-(1,14800)
        107          3          7     -0.48683878                    1_GWF-(1,26350)      0.13017902                    1_GWF-(1,14801)
        108          3          8     -0.68403216                    1_GWF-(1,11438)      0.11221002                    1_GWF-(1,14800)
        109          3          9      0.94395002                    1_GWF-(1,11438)      0.13911998                    1_GWF-(1,14801)
        110          3         10      0.61984276                    1_GWF-(1,26350)  9.40073458E-02                    1_GWF-(1,14800)
        111          3         11      0.48878227                    1_GWF-(1,26486)  6.70908872E-02                    1_GWF-(1,14801)
        112          3         12      0.85330927                    1_GWF-(1,11438)  3.92528704E-02                    1_GWF-(1,14800)
        113          3         13     -0.53545079                    1_GWF-(1,11438)  3.57559418E-02                    1_GWF-(1,10966)
        114          3         14      0.41857595                    1_GWF-(1,26350)  3.49999051E-02                    1_GWF-(1,14799)
        115          3         15      0.56169082                    1_GWF-(1,11438)  4.69909537E-02                    1_GWF-(1,10966)
        116          3         16     -0.58591077                    1_GWF-(1,11438) -5.47014453E-02                    1_GWF-(1,10966)
        117          3         17      0.45342286                    1_GWF-(1,26422)  5.05569901E-02                    1_GWF-(1,14800)
        118          3         18      0.54201793                    1_GWF-(1,11438)  7.01502565E-02                    1_GWF-(1,14801)
        119          3         19     -0.80768938                    1_GWF-(1,11438)  8.26171912E-02                    1_GWF-(1,14800)
        120          3         20      0.47273157                    1_GWF-(1,26659)  9.14733443E-02                    1_GWF-(1,14801)
        121          3         21     -0.50148466                    1_GWF-(1,26420)  8.44022228E-02                    1_GWF-(1,14800)
        122          3         22     -0.95091712                    1_GWF-(1,11438)      0.10409678                    1_GWF-(1,14801)
        123          3         23     -0.69960271                    1_GWF-(1,11458)  9.12337043E-02                    1_GWF-(1,14800)
        124          3         24     -0.52373015                    1_GWF-(1,11453)  7.38761276E-02                    1_GWF-(1,14801)
        125          3         25     -0.77471096                    1_GWF-(1,11438) -4.91072573E-02                    1_GWF-(1,10966)
        126          3         26      0.88266283                    1_GWF-(1,26420)  2.02452632E-02                    1_GWF-(1,10966)
        127          3         27      0.79950993                    1_GWF-(1,26487)  3.74417888E-02                    1_GWF-(1,14801)
        128          3         28     -0.64953911                    1_GWF-(1,11438)  4.77202139E-02                    1_GWF-(1,14800)
        129          3         29     -0.64766673                    1_GWF-(1,26486)  5.21641102E-02                    1_GWF-(1,14801)
        130          3         30     -0.60696771                    1_GWF-(1,26544) -3.65369602E-02                    1_GWF-(1,10966)
        131          3         31     -0.58456936                    1_GWF-(1,11438) -2.42507491E-02                    1_GWF-(1,14799)
        132          3         32      0.64896487                    1_GWF-(1,26543)  2.53721319E-02                    1_GWF-(1,14801)
        133          3         33     -0.63045143                    1_GWF-(1,26543)  3.96333909E-02                    1_GWF-(1,14800)
        134          3         34     -0.61259136                    1_GWF-(1,26588)  4.75740787E-02                    1_GWF-(1,10966)
        135          3         35      0.55959698                    1_GWF-(1,26588)  4.50553835E-02                    1_GWF-(1,14799)
        136          3         36      0.44692344                    1_GWF-(1,26665) -3.27761807E-02                    1_GWF-(1,14799)
        137          3         37      0.48694413                    1_GWF-(1,26623)  2.41287612E-02                    1_GWF-(1,14799)
        138          3         38      0.65036058                    1_GWF-(1,26622)  1.88496851E-02                    1_GWF-(1,14800)
        139          3         39      0.49751515                    1_GWF-(1,26649)  3.40052292E-02                    1_GWF-(1,10966)
        140          3         40     -0.48025831                    1_GWF-(1,26649)  4.54217898E-02                    1_GWF-(1,14799)
        141          3         41     -0.46784522                    1_GWF-(1,26622) -3.33339308E-02                    1_GWF-(1,14799)
        142          3         42     -0.61691662                    1_GWF-(1,26665)  1.29969313E-02                    1_GWF-(1,14801)
        143          3         43     -0.58471122                    1_GWF-(1,26666) -2.94495504E-02                    1_GWF-(1,10966)
        144          3         44     -0.45480613                    1_GWF-(1,26665) -3.44873445E-02                    1_GWF-(1,14799)
        145          3         45      0.57848759                    1_GWF-(1,26665)  5.62851830E-02                    1_GWF-(1,14799)
        146          3         46      0.48452764                    1_GWF-(1,26666) -5.54173282E-02                    1_GWF-(1,14799)
        147          3         47      0.42600057                    1_GWF-(1,11453)  7.12408353E-02                    1_GWF-(1,14799)
        148          3         48     -0.30173170                    1_GWF-(1,26154) -6.04669161E-02                    1_GWF-(1,14799)
        149          3         49     -0.33713420                    1_GWF-(1,26649)  9.16799437E-02                    1_GWF-(1,14799)
        150          3         50      0.46112099                    1_GWF-(1,11453) -7.38572978E-02                    1_GWF-(1,14799)
        151          4          1     -0.37218968                    1_GWF-(1,11453)  8.02642237E-02                    1_GWF-(1,14799)
        152          4          2      0.18484044                    1_GWF-(1,26623) -7.70846282E-02                    1_GWF-(1,14799)
        153          4          3      0.27791205                    1_GWF-(1,11453)  7.96509178E-02                    1_GWF-(1,14799)
        154          4          4     -0.41169909                    1_GWF-(1,11453) -6.90694777E-02                    1_GWF-(1,14799)
        155          4          5      0.29125759                    1_GWF-(1,11437)  6.71878175E-02                    1_GWF-(1,14799)
        156          4          6     -0.27864979                    1_GWF-(1,11437) -4.52624491E-02                    1_GWF-(1,14799)
        157          4          7     -0.36931405                    1_GWF-(1,11453)  3.48628480E-02                    1_GWF-(1,14799)
        158          4          8     -0.35943924                    1_GWF-(1,26665)  1.09920894E-02                    1_GWF-(1,14801)
        159          4          9      0.38360335                    1_GWF-(1,26665) -1.56841164E-02                    1_GWF-(1,14799)
        160          4         10      0.33016710                    1_GWF-(1,26666)  3.84605446E-02                    1_GWF-(1,14799)
        161          4         11      0.28376226                    1_GWF-(1,26649) -3.39781799E-02                    1_GWF-(1,14799)
        162          4         12     -0.26895609                    1_GWF-(1,26649)  2.06249713E-02                    1_GWF-(1,14799)
        163          4         13     -0.28918629                    1_GWF-(1,11453)  8.01471107E-03                    1_GWF-(1,14801)
        164          4         14      0.32895625                    1_GWF-(1,26622) -1.97599087E-02                    1_GWF-(1,14799)
        165          4         15      0.24585670                    1_GWF-(1,26623)  3.20951600E-02                    1_GWF-(1,14799)
        166          4         16     -0.30503521                    1_GWF-(1,11453) -2.71563602E-02                    1_GWF-(1,14799)
        167          4         17      0.23134733                    1_GWF-(1,11438)  2.05704835E-02                    1_GWF-(1,14799)
        168          4         18     -0.26909916                    1_GWF-(1,26588)  1.32880987E-02                    1_GWF-(1,14801)
        169          4         19     -0.38516083                    1_GWF-(1,26543) -9.10636407E-03                    1_GWF-(1,14799)
        170          4         20     -0.36906390                    1_GWF-(1,26588)  1.99559069E-02                    1_GWF-(1,14799)
        171          4         21     -0.24730608                    1_GWF-(1,26543) -1.71635159E-02                    1_GWF-(1,14799)
        172          4         22      0.20494269                    1_GWF-(1,11458)  1.43764778E-02                    1_GWF-(1,14799)
        173          4         23      0.20914656                    1_GWF-(1,26487)  1.47146079E-02                    1_GWF-(1,14801)
        174          4         24      0.25977561                    1_GWF-(1,26486)  7.71894327E-03                    1_GWF-(1,14800)
        175          4         25      0.28662165                    1_GWF-(1,26487)  1.56115128E-02                    1_GWF-(1,14799)
        176          4         26      0.25708971                    1_GWF-(1,26420)  1.49710511E-02                    1_GWF-(1,14801)
        177          4         27      0.22968178                    1_GWF-(1,11453)  2.02401080E-02                    1_GWF-(1,14800)
        178          4         28      0.27018899                    1_GWF-(1,11458)  2.54091376E-02                    1_GWF-(1,14801)
        179          4         29      0.19708535                    1_GWF-(1,11438)  2.17134975E-02                    1_GWF-(1,14800)
        180          4         30     -0.21715472                    1_GWF-(1,11417)  2.66026292E-02                    1_GWF-(1,14801)
        181          4         31      0.21509631                    1_GWF-(1,11458) -2.33457186E-02                    1_GWF-(1,14801)
        182          4         32      0.24214430                    1_GWF-(1,11438)  2.60705185E-02                    1_GWF-(1,14801)
        183          4         33     -0.17297813                    1_GWF-(1,26544)  1.92738927E-02                    1_GWF-(1,14800)
        184          4         34     -0.16191190                    1_GWF-(1,26486)  1.90442832E-02                    1_GWF-(1,14801)
        185          4         35      0.22173538                    1_GWF-(1,11438)  1.09190068E-02                    1_GWF-(1,14800)
        186          4         36     -0.19311377                    1_GWF-(1,26422)  1.05840969E-02                    1_GWF-(1,14799)
        187          4         37     -0.14839906                    1_GWF-(1,26350)  6.19155149E-03                    1_GWF-(1,14798)
        188          4         38      0.19384914                    1_GWF-(1,11438)  7.64957135E-03                    1_GWF-(1,14799)
        189          4         39     -0.19745035                    1_GWF-(1,11438)  8.38334981E-03                    1_GWF-(1,14801)
        190          4         40     -0.11194241                    1_GWF-(1,26422)  1.24268445E-02                    1_GWF-(1,14800)
        191          4         41      0.17002151                    1_GWF-(1,11438)  1.84418507E-02                    1_GWF-(1,14801)
        192          4         42     -0.21068244                    1_GWF-(1,11438)  1.80302586E-02                    1_GWF-(1,14800)
        193          4         43      0.12831991                    1_GWF-(1,26422)  2.07600463E-02                    1_GWF-(1,14801)
        194          4         44      0.14824712                    1_GWF-(1,26350)  2.19406796E-02                    1_GWF-(1,14800)
        195          4         45     -0.19596999                    1_GWF-(1,11438)  2.31407962E-02                    1_GWF-(1,14801)
        196          4         46  9.78938636E-02                    1_GWF-(1,26420)  1.77127032E-02                    1_GWF-(1,14800)
        197          4         47      0.11053736                    1_GWF-(1,11438)  1.93546715E-02                    1_GWF-(1,14801)
        198          4         48     -0.15954209                    1_GWF-(1,11438)  1.41029169E-02                    1_GWF-(1,14800)
        199          4         49     -0.10392743                    1_GWF-(1,11442)  1.24654310E-02                    1_GWF-(1,14801)
        200          4         50      0.10599333                    1_GWF-(1,11438)  9.91255179E-03                    1_GWF-(1,14800)
        201          5          1     -0.21640503                    1_GWF-(1,11427)  3.99421685E-03                    1_GWF-(1,14801)
        202          5          2     -0.13665720                    1_GWF-(1,11438)  1.39379601E-02                    1_GWF-(1,14800)
        203          5          3      0.11659464                    1_GWF-(1,11438)  1.78593021E-02                    1_GWF-(1,14801)
        204          5          4      0.11990604                    1_GWF-(1,11423)  1.13902435E-02                    1_GWF-(1,14800)
        205          5          5     -0.23324134                    1_GWF-(1,11438)  1.65557880E-02                    1_GWF-(1,14801)
        206          5          6      0.23589711                    1_GWF-(1,11438) -1.83300367E-02                    1_GWF-(1,14801)
        207          5          7     -0.10889213                    1_GWF-(1,26350)  1.70771050E-02                    1_GWF-(1,14801)
        208          5          8     -0.18907026                    1_GWF-(1,11438)  1.43481893E-02                    1_GWF-(1,14800)
        209          5          9      0.25199785                    1_GWF-(1,11438)  1.62055658E-02                    1_GWF-(1,14801)
        210          5         10     -0.10839240                    1_GWF-(1,11424)  1.11427590E-02                    1_GWF-(1,14800)
        211          5         11     -0.14370460                    1_GWF-(1,11417)  8.05736380E-03                    1_GWF-(1,14801)
        212          5         12      0.19699061                    1_GWF-(1,11438)  4.49978599E-03                    1_GWF-(1,14799)
        213          5         13     -0.11850605                    1_GWF-(1,11424)  3.94693926E-03                    1_GWF-(1,14798)
        214          5         14     -0.12365539                    1_GWF-(1,11417)  6.02433925E-03                    1_GWF-(1,14799)
        215          5         15      0.11437016                    1_GWF-(1,11438)  4.82180903E-03                    1_GWF-(1,14800)
        216          5         16      0.13138908                    1_GWF-(1,11458)  8.34236603E-03                    1_GWF-(1,14801)
        217          5         17 -9.89093159E-02                    1_GWF-(1,11417)  8.92218553E-03                    1_GWF-(1,14800)
        218          5         18     -0.11840782                    1_GWF-(1,11453)  1.20001251E-02                    1_GWF-(1,14801)
        219          5         19      0.15439371                    1_GWF-(1,11458)  1.18336323E-02                    1_GWF-(1,14800)
        220          5         20     -0.12243130                    1_GWF-(1,26486)  1.29602469E-02                    1_GWF-(1,14801)
        221          5         21     -0.13778255                    1_GWF-(1,11453)  9.09692588E-03                    1_GWF-(1,14800)
        222          5         22      0.12682129                    1_GWF-(1,11458)  5.67246584E-03                    1_GWF-(1,14801)
        223          5         23     -0.14674069                    1_GWF-(1,26588)  4.65443998E-03                    1_GWF-(1,14799)
        224          5         24     -0.10627142                    1_GWF-(1,11453)  8.06368165E-03                    1_GWF-(1,14800)
        225          5         25  9.04416797E-02                    1_GWF-(1,11412)  1.09079273E-02                    1_GWF-(1,14801)
        226          5         26 -9.95627455E-02                    1_GWF-(1,11369)  8.69791038E-03                    1_GWF-(1,14800)
        227          5         27 -9.31746506E-02                    1_GWF-(1,11453)  8.17993731E-03                    1_GWF-(1,14801)
        228          5         28 -7.95200135E-02                    1_GWF-(1,11424)  5.74256274E-03                    1_GWF-(1,14799)
        229          5         29 -8.79203552E-02                    1_GWF-(1,11369) -5.42660815E-03                    1_GWF-(1,14799)
        230          5         30  8.66756126E-02                    1_GWF-(1,11369)  5.49252445E-03                    1_GWF-(1,14799)
        231          5         31      0.11144772                    1_GWF-(1,26588)  2.56483139E-03                    1_GWF-(1,14800)
        232          5         32  9.77718283E-02                    1_GWF-(1,26543)  4.60723150E-03                    1_GWF-(1,14801)
        233          5         33  6.61958108E-02                    1_GWF-(1,11369)  5.27588047E-03                    1_GWF-(1,14799)
        234          5         34  7.69267146E-02                    1_GWF-(1,11412) -6.68640287E-03                    1_GWF-(1,14799)
        235          5         35 -8.24435128E-02                    1_GWF-(1,11369)  8.29086043E-03                    1_GWF-(1,14799)
        236          5         36  8.19240706E-02                    1_GWF-(1,26665) -5.58662202E-03                    1_GWF-(1,14799)
        237          5         37  8.13771191E-02                    1_GWF-(1,26666)  3.00914227E-03                    1_GWF-(1,14799)
        238          5         38  7.63418207E-02                    1_GWF-(1,26665)  3.01937774E-03                    1_GWF-(1,14799)
        239          5         39  5.28558409E-02                    1_GWF-(1,26487) -5.71974487E-03                    1_GWF-(1,14799)
        240          5         40 -5.75322526E-02                    1_GWF-(1,26487)  8.52933788E-03                    1_GWF-(1,14799)
        241          5         41 -6.68425993E-02                    1_GWF-(1,26486) -4.69936901E-03                    1_GWF-(1,14799)
        242          5         42 -6.36055020E-02                    1_GWF-(1,26487)  1.69646832E-03                    1_GWF-(1,14801)
        243          5         43  5.06810648E-02                    1_GWF-(1,26622)  4.35216334E-03                    1_GWF-(1,14799)
        244          5         44  4.52879686E-02                    1_GWF-(1,11453) -6.38732245E-03                    1_GWF-(1,14799)
        245          5         45 -6.07855080E-02                    1_GWF-(1,11412)  9.93084478E-03                    1_GWF-(1,14799)
        246          5         46 -5.71705557E-02                    1_GWF-(1,11424) -1.01445071E-02                    1_GWF-(1,14799)
        247          5         47  4.87409684E-02                    1_GWF-(1,11453)  1.15685178E-02                    1_GWF-(1,14799)
        248          5         48  3.92372759E-02                    1_GWF-(1,26218) -1.08093508E-02                    1_GWF-(1,14799)
        249          5         49 -4.89007076E-02                    1_GWF-(1,11424)  1.22456373E-02                    1_GWF-(1,14799)
        250          5         50  3.92037960E-02                    1_GWF-(1,11453) -1.09647158E-02                    1_GWF-(1,14799)
        251          6          1 -3.55801076E-02                    1_GWF-(1,11453)  1.25769133E-02                    1_GWF-(1,14799)
        252          6          2  2.81122018E-02                    1_GWF-(1,26666) -1.00861684E-02                    1_GWF-(1,14799)
        253          6          3  3.34871611E-02                    1_GWF-(1,26157)  1.01732494E-02                    1_GWF-(1,14799)
        254          6          4 -4.33481790E-02                    1_GWF-(1,11453) -9.38644667E-03                    1_GWF-(1,14799)
        255          6          5  3.05319720E-02                    1_GWF-(1,25818)  9.03371686E-03                    1_GWF-(1,14799)
        256          6          6 -3.78082005E-02                    1_GWF-(1,26665) -5.83785066E-03                    1_GWF-(1,14799)
        257          6          7 -3.98093860E-02                    1_GWF-(1,11453)  4.30606119E-03                    1_GWF-(1,14799)
        258          6          8 -4.19579493E-02                    1_GWF-(1,26622)  1.40008502E-03                    1_GWF-(1,14801)
        259          6          9  5.43038694E-02                    1_GWF-(1,26487) -2.83063527E-03                    1_GWF-(1,14799)
        260          6         10  4.89282859E-02                    1_GWF-(1,26486)  6.03222536E-03                    1_GWF-(1,14799)
        261          6         11  3.71791206E-02                    1_GWF-(1,26487) -4.92016455E-03                    1_GWF-(1,14799)
        262          6         12 -4.17080777E-02                    1_GWF-(1,26487)  2.89340633E-03                    1_GWF-(1,14799)
        263          6         13 -3.81926050E-02                    1_GWF-(1,26665)  1.17527882E-03                    1_GWF-(1,14801)
        264          6         14 -4.05104126E-02                    1_GWF-(1,26666) -3.21430685E-03                    1_GWF-(1,14799)
        265          6         15 -4.63980948E-02                    1_GWF-(1,26665)  4.93446597E-03                    1_GWF-(1,14799)
        266          6         16 -3.05252541E-02                    1_GWF-(1,26349) -4.01744984E-03                    1_GWF-(1,14799)
        267          6         17 -3.01273695E-02                    1_GWF-(1,26649)  3.05905885E-03                    1_GWF-(1,14799)
        268          6         18 -2.83608060E-02                    1_GWF-(1,11369)  2.09146596E-03                    1_GWF-(1,14801)
        269          6         19 -4.34309859E-02                    1_GWF-(1,26543)  1.30091557E-03                    1_GWF-(1,14800)
        270          6         20 -5.28645915E-02                    1_GWF-(1,26588)  2.42807195E-03                    1_GWF-(1,14799)
        271          6         21 -4.01753602E-02                    1_GWF-(1,26543) -2.54070126E-03                    1_GWF-(1,14799)
        272          6         22 -2.82554258E-02                    1_GWF-(1,26622)  2.63222770E-03                    1_GWF-(1,14799)
        273          6         23 -2.79545299E-02                    1_GWF-(1,11458)  2.93132365E-03                    1_GWF-(1,14801)
        274          6         24  2.88719301E-02                    1_GWF-(1,11453)  3.10919962E-03                    1_GWF-(1,14800)
        275          6         25 -2.92445173E-02                    1_GWF-(1,26218)  3.70651052E-03                    1_GWF-(1,14801)
        276          6         26 -3.45552192E-02                    1_GWF-(1,11458)  2.70117551E-03                    1_GWF-(1,14800)
        277          6         27  3.61928098E-02                    1_GWF-(1,26622)  1.61728815E-03                    1_GWF-(1,14801)
        278          6         28  4.13456575E-02                    1_GWF-(1,26588)  1.17275125E-03                    1_GWF-(1,14801)
        279          6         29 -3.26349536E-02                    1_GWF-(1,11458)  2.33148489E-03                    1_GWF-(1,14800)
        280          6         30  2.32103995E-02                    1_GWF-(1,26544)  3.34894329E-03                    1_GWF-(1,14801)
        281          6         31  3.74340719E-02                    1_GWF-(1,26486)  3.08444366E-03                    1_GWF-(1,14800)
        282          6         32 -3.87602949E-02                    1_GWF-(1,11458)  3.32192274E-03                    1_GWF-(1,14801)
        283          6         33 -2.09089666E-02                    1_GWF-(1,26544)  2.47622369E-03                    1_GWF-(1,14800)
        284          6         34 -2.17642114E-02                    1_GWF-(1,26486)  2.42635768E-03                    1_GWF-(1,14801)
        285          6         35 -3.40488836E-02                    1_GWF-(1,11458)  1.53248757E-03                    1_GWF-(1,14800)
        286          6         36 -2.82464072E-02                    1_GWF-(1,26422)  1.66572147E-03                    1_GWF-(1,14799)
        287          6         37 -2.67812917E-02                    1_GWF-(1,26350)  1.00919103E-03                    1_GWF-(1,14798)
        288          6         38  3.10193745E-02                    1_GWF-(1,11438)  1.09993490E-03                    1_GWF-(1,14799)
        289          6         39 -3.00239870E-02                    1_GWF-(1,11438)  1.42187202E-03                    1_GWF-(1,14801)
        290          6         40 -1.74822289E-02                    1_GWF-(1,11412)  1.94850400E-03                    1_GWF-(1,14800)
        291          6         41  2.89991544E-02                    1_GWF-(1,11438)  2.77458889E-03                    1_GWF-(1,14801)
        292          6         42 -3.42585023E-02                    1_GWF-(1,11438)  2.47961856E-03                    1_GWF-(1,14800)
        293          6         43 -1.89013372E-02                    1_GWF-(1,11412)  2.90887744E-03                    1_GWF-(1,14801)
        294          6         44  2.48349759E-02                    1_GWF-(1,11438)  2.99302007E-03                    1_GWF-(1,14800)
        295          6         45 -3.68147653E-02                    1_GWF-(1,11438)  3.01605118E-03                    1_GWF-(1,14801)
        296          6         46  2.56902069E-02                    1_GWF-(1,11424)  2.23351920E-03                    1_GWF-(1,14800)
        297          6         47  1.90446198E-02                    1_GWF-(1,11438)  2.88396575E-03                    1_GWF-(1,14801)
        298          6         48 -3.59215631E-02                    1_GWF-(1,11438)  2.16332844E-03                    1_GWF-(1,14800)
        299          6         49  2.45287336E-02                    1_GWF-(1,11424)  1.45939706E-03                    1_GWF-(1,14801)
        300          6         50  3.88089771E-02                    1_GWF-(1,11438)  1.52640537E-03                    1_GWF-(1,14800)
        301          7          1 -4.30468566E-02                    1_GWF-(1,11438)  1.34051010E-03                    1_GWF-(1,14801)
        302          7          2 -1.02132636E-02                    1_GWF-(1,26537)  1.77128509E-03                    1_GWF-(1,14800)
        303          7          3  2.55542073E-02                    1_GWF-(1,11438)  2.25996340E-03                    1_GWF-(1,14801)
        304          7          4 -1.96663923E-02                    1_GWF-(1,11438)  1.87448148E-03                    1_GWF-(1,14800)
        305          7          5 -1.27196677E-02                    1_GWF-(1,26420)  2.40290920E-03                    1_GWF-(1,14801)
        306          7          6  1.89538122E-02                    1_GWF-(1,11438)  2.30688256E-03                    1_GWF-(1,14800)
        307          7          7  1.81084427E-02                    1_GWF-(1,11453)  2.49391511E-03                    1_GWF-(1,14801)
        308          7          8 -1.50015287E-02                    1_GWF-(1,26421)  2.16059773E-03                    1_GWF-(1,14800)
        309          7          9  1.49691501E-02                    1_GWF-(1,11438)  2.21742866E-03                    1_GWF-(1,14801)
        310          7         10  1.86728399E-02                    1_GWF-(1,11453)  1.55782404E-03                    1_GWF-(1,14800)
        311          7         11  1.25305576E-02                    1_GWF-(1,26422)  1.21761596E-03                    1_GWF-(1,14801)
        312          7         12  1.69450473E-02                    1_GWF-(1,26350)  7.14169732E-04                    1_GWF-(1,14799)
        313          7         13  2.06807312E-02                    1_GWF-(1,26422)  6.05726194E-04                    1_GWF-(1,14798)
        314          7         14  1.87680621E-02                    1_GWF-(1,26350)  9.89100069E-04                    1_GWF-(1,14799)
        315          7         15  1.81320721E-02                    1_GWF-(1,26422)  8.01655347E-04                    1_GWF-(1,14800)
        316          7         16  1.53161344E-02                    1_GWF-(1,26350)  1.22128836E-03                    1_GWF-(1,14801)
        317          7         17  1.13678854E-02                    1_GWF-(1,26422)  1.22173973E-03                    1_GWF-(1,14800)
        318          7         18  1.54398739E-02                    1_GWF-(1,11438)  1.44003810E-03                    1_GWF-(1,14801)
        319          7         19 -1.60244606E-02                    1_GWF-(1,26420)  7.55584040E-04                    1_GWF-(1,14800)
        320          7         20 -2.34871271E-02                    1_GWF-(1,26487)  5.18502395E-04                    1_GWF-(1,14798)
        321          7         21 -2.39100951E-02                    1_GWF-(1,26486)  1.36452772E-03                    1_GWF-(1,14801)
        322          7         22 -1.39370782E-02                    1_GWF-(1,26350) -1.55883339E-03                    1_GWF-(1,14801)
        323          7         23 -1.72066164E-02                    1_GWF-(1,11438)  1.99024567E-03                    1_GWF-(1,14801)
        324          7         24  2.47839268E-02                    1_GWF-(1,11438)  1.55035387E-03                    1_GWF-(1,14800)
        325          7         25 -1.19113637E-02                    1_GWF-(1,11438)  1.49150075E-03                    1_GWF-(1,14801)
        326          7         26  1.20104568E-02                    1_GWF-(1,26218)  9.45407091E-04                    1_GWF-(1,14800)
        327          7         27  1.81631714E-02                    1_GWF-(1,11438)  4.14558248E-04                    1_GWF-(1,14798)
        328          7         28  1.34937414E-02                    1_GWF-(1,26622)  6.96283342E-04                    1_GWF-(1,14801)
        329          7         29 -1.43268225E-02                    1_GWF-(1,11438)  1.00714754E-03                    1_GWF-(1,14800)
        330          7         30  1.66924343E-02                    1_GWF-(1,11438)  1.12189450E-03                    1_GWF-(1,14801)
        331          7         31 -1.16356473E-02                    1_GWF-(1,26217)  9.35961130E-04                    1_GWF-(1,14800)
        332          7         32 -1.21597520E-02                    1_GWF-(1,11438) -8.14548530E-04                    1_GWF-(1,14799)
        333          7         33  1.70962922E-02                    1_GWF-(1,11438)  1.16661427E-03                    1_GWF-(1,14799)
        334          7         34 -9.18164726E-03                    1_GWF-(1,11438) -1.07909162E-03                    1_GWF-(1,14799)
        335          7         35  9.44986985E-03                    1_GWF-(1,11458)  1.14994611E-03                    1_GWF-(1,14799)
        336          7         36  1.45389863E-02                    1_GWF-(1,11438) -4.61938741E-04                    1_GWF-(1,14799)
        337          7         37  9.52948551E-03                    1_GWF-(1,26666)  4.45218786E-04                    1_GWF-(1,14801)
        338          7         38  1.03098019E-02                    1_GWF-(1,26674)  8.83040799E-04                    1_GWF-(1,14799)
        339          7         39 -1.32964851E-02                    1_GWF-(1,11458) -1.16712970E-03                    1_GWF-(1,14799)
        340          7         40 -6.75810444E-03                    1_GWF-(1,26422)  1.57198044E-03                    1_GWF-(1,14799)
        341          7         41 -8.01446620E-03                    1_GWF-(1,26420) -1.32510906E-03                    1_GWF-(1,14799)
        342          7         42 -9.56845382E-03                    1_GWF-(1,11458)  1.06118583E-03                    1_GWF-(1,14799)
        343          7         43  6.79806793E-03                    1_GWF-(1,26589)  1.81657097E-04                    1_GWF-(1,14798)
        344          7         44  8.07499027E-03                    1_GWF-(1,26666) -5.23259417E-04                    1_GWF-(1,14799)
        345          7         45  1.04577531E-02                    1_GWF-(1,26665)  1.24086017E-03                    1_GWF-(1,14799)
        346          7         46 -8.20501143E-03                    1_GWF-(1,11453) -1.43864355E-03                    1_GWF-(1,14799)
        347          7         47  8.31173253E-03                    1_GWF-(1,11453)  1.63963341E-03                    1_GWF-(1,14799)
        348          7         48  6.62536421E-03                    1_GWF-(1,26218) -1.57335670E-03                    1_GWF-(1,14799)
        349          7         49 -5.81787634E-03                    1_GWF-(1,11453)  2.00321551E-03                    1_GWF-(1,14799)
        350          7         50  8.31246211E-03                    1_GWF-(1,11453) -1.65676783E-03                    1_GWF-(1,14799)
        351          8          1 -6.46171465E-03                    1_GWF-(1,11453)  2.05805041E-03                    1_GWF-(1,14799)
        352          8          2  5.18585808E-03                    1_GWF-(1,26666) -1.44622588E-03                    1_GWF-(1,14799)
        353          8          3 -5.51716771E-03                    1_GWF-(1,26218)  1.40733510E-03                    1_GWF-(1,14799)
        354          8          4 -8.58221650E-03                    1_GWF-(1,11453) -1.26965559E-03                    1_GWF-(1,14799)
        355          8          5  5.04379031E-03                    1_GWF-(1,11453)  1.09723950E-03                    1_GWF-(1,14799)
        356          8          6 -7.98924223E-03                    1_GWF-(1,26665) -4.81955323E-04                    1_GWF-(1,14799)
        357          8          7 -7.63461245E-03                    1_GWF-(1,11453)  1.36273705E-04                    1_GWF-(1,14800)
        358          8          8 -5.66316216E-03                    1_GWF-(1,26665)  7.47198581E-04                    1_GWF-(1,14799)
        359          8          9  6.84590969E-03                    1_GWF-(1,26487) -9.17048329E-04                    1_GWF-(1,14799)
        360          8         10 -7.41968265E-03                    1_GWF-(1,11453)  1.10154913E-03                    1_GWF-(1,14799)
        361          8         11  4.23596124E-03                    1_GWF-(1,26422) -8.45691164E-04                    1_GWF-(1,14799)
        362          8         12  6.91823050E-03                    1_GWF-(1,11458)  6.26425106E-04                    1_GWF-(1,14799)
        363          8         13  6.59731295E-03                    1_GWF-(1,11369)  2.65536686E-04                    1_GWF-(1,14801)
        364          8         14  4.74758890E-03                    1_GWF-(1,26622) -2.24329727E-04                    1_GWF-(1,14799)
        365          8         15 -6.36496596E-03                    1_GWF-(1,11438)  6.02605491E-04                    1_GWF-(1,14799)
        366          8         16 -5.03975356E-03                    1_GWF-(1,11453) -5.82586180E-04                    1_GWF-(1,14799)
        367          8         17  5.68035686E-03                    1_GWF-(1,11438)  5.82025264E-04                    1_GWF-(1,14799)
        368          8         18  6.82198818E-03                    1_GWF-(1,11458) -3.94225894E-04                    1_GWF-(1,14799)
        369          8         19 -4.73366624E-03                    1_GWF-(1,11453)  4.05748711E-04                    1_GWF-(1,14800)
        370          8         20  5.52628258E-03                    1_GWF-(1,26217)  4.74808634E-04                    1_GWF-(1,14801)
        371          8         21 -7.06644090E-03                    1_GWF-(1,11438)  4.22210468E-04                    1_GWF-(1,14800)
        372          8         22 -5.34710501E-03                    1_GWF-(1,26649)  3.17243055E-04                    1_GWF-(1,14801)
        373          8         23 -5.33264796E-03                    1_GWF-(1,26622)  1.54211167E-04                    1_GWF-(1,14798)
        374          8         24 -6.32818540E-03                    1_GWF-(1,11438)  3.24403099E-04                    1_GWF-(1,14800)
        375          8         25 -4.39993219E-03                    1_GWF-(1,26218)  5.23858333E-04                    1_GWF-(1,14801)
        376          8         26  6.99879785E-03                    1_GWF-(1,11438)  5.11404993E-04                    1_GWF-(1,14800)
        377          8         27 -8.04280675E-03                    1_GWF-(1,11438)  6.06210367E-04                    1_GWF-(1,14801)
        378          8         28  3.75147327E-03                    1_GWF-(1,26218) -4.77024151E-04                    1_GWF-(1,14801)
        379          8         29 -5.26132763E-03                    1_GWF-(1,11458)  4.03439403E-04                    1_GWF-(1,14801)
        380          8         30  6.90115148E-03                    1_GWF-(1,26486)  1.46982909E-04                    1_GWF-(1,14798)
        381          8         31  6.47638027E-03                    1_GWF-(1,26487)  1.87022301E-04                    1_GWF-(1,14800)
        382          8         32  5.39484744E-03                    1_GWF-(1,11438)  3.62789878E-04                    1_GWF-(1,14801)
        383          8         33 -4.15857971E-03                    1_GWF-(1,11438)  3.15798427E-04                    1_GWF-(1,14800)
        384          8         34 -2.90584555E-03                    1_GWF-(1,26422)  3.28458906E-04                    1_GWF-(1,14801)
        385          8         35  5.32414920E-03                    1_GWF-(1,11438)  2.13713013E-04                    1_GWF-(1,14800)
        386          8         36 -4.28704720E-03                    1_GWF-(1,26422)  2.44339320E-04                    1_GWF-(1,14799)
        387          8         37 -4.22592081E-03                    1_GWF-(1,26350)  1.44965395E-04                    1_GWF-(1,14798)
        388          8         38  4.94012128E-03                    1_GWF-(1,11438)  1.60661940E-04                    1_GWF-(1,14799)
        389          8         39 -4.81679601E-03                    1_GWF-(1,11438)  2.34034391E-04                    1_GWF-(1,14801)
        390          8         40 -2.29974760E-03                    1_GWF-(1,26422)  3.07214686E-04                    1_GWF-(1,14800)
        391          8         41  3.73275197E-03                    1_GWF-(1,11438)  4.20496132E-04                    1_GWF-(1,14801)
        392          8         42 -4.21888398E-03                    1_GWF-(1,11438)  3.95077499E-04                    1_GWF-(1,14800)
        393          8         43  2.63503397E-03                    1_GWF-(1,26422)  4.49386867E-04                    1_GWF-(1,14801)
        394          8         44 -3.41160163E-03                    1_GWF-(1,11453) -4.06959163E-04                    1_GWF-(1,14801)
        395          8         45 -3.81118013E-03                    1_GWF-(1,11438)  4.26175254E-04                    1_GWF-(1,14801)
        396          8         46  2.22411531E-03                    1_GWF-(1,26420)  3.40360217E-04                    1_GWF-(1,14800)
        397          8         47 -3.48817232E-03                    1_GWF-(1,11453)  3.83435709E-04                    1_GWF-(1,14801)
        398          8         48 -3.50318391E-03                    1_GWF-(1,11438)  2.86883531E-04                    1_GWF-(1,14800)
        399          8         49  1.60063931E-03                    1_GWF-(1,26537)  2.37900805E-04                    1_GWF-(1,14801)
        400          8         50  5.01430110E-03                    1_GWF-(1,11438)  2.35327577E-04                    1_GWF-(1,14800)
        401          9          1 -4.70649386E-03                    1_GWF-(1,11438)  2.22049643E-04                    1_GWF-(1,14801)
        402          9          2 -1.62853700E-03                    1_GWF-(1,26537)  2.59725040E-04                    1_GWF-(1,14800)
        403          9          3  3.93494190E-03                    1_GWF-(1,11438)  3.31249344E-04                    1_GWF-(1,14801)
        404          9          4  3.10487132E-03                    1_GWF-(1,11453)  2.92194119E-04                    1_GWF-(1,14800)
        405          9          5 -2.00300234E-03                    1_GWF-(1,26420)  3.60390955E-04                    1_GWF-(1,14801)
        406          9          6  3.71644251E-03                    1_GWF-(1,11438) -3.35389536E-04                    1_GWF-(1,14801)
        407          9          7 -2.98940049E-03                    1_GWF-(1,11438)  3.70234665E-04                    1_GWF-(1,14801)
        408          9          8 -2.19627985E-03                    1_GWF-(1,26421)  3.23820227E-04                    1_GWF-(1,14800)
        409          9          9  3.30977745E-03                    1_GWF-(1,11438)  3.29440583E-04                    1_GWF-(1,14801)
        410          9         10 -3.26294566E-03                    1_GWF-(1,11438)  2.31378141E-04                    1_GWF-(1,14800)
        411          9         11  1.85315338E-03                    1_GWF-(1,26422)  1.78911499E-04                    1_GWF-(1,14801)
        412          9         12  2.93429593E-03                    1_GWF-(1,11438)  1.11380159E-04                    1_GWF-(1,14799)
        413          9         13 -3.23727348E-03                    1_GWF-(1,11438)  9.48590313E-05                    1_GWF-(1,14798)
        414          9         14  2.77586891E-03                    1_GWF-(1,26350)  1.48367188E-04                    1_GWF-(1,14799)
        415          9         15  2.42141262E-03                    1_GWF-(1,26486)  1.24264493E-04                    1_GWF-(1,14800)
        416          9         16  2.46415377E-03                    1_GWF-(1,11458)  1.65984363E-04                    1_GWF-(1,14801)
        417          9         17  2.90723048E-03                    1_GWF-(1,26486)  1.07778483E-04                    1_GWF-(1,14800)
        418          9         18  2.15521857E-03                    1_GWF-(1,26487)  6.48074996E-05                    1_GWF-(1,14798)
        419          9         19 -2.20117714E-03                    1_GWF-(1,26422)  1.59947048E-04                    1_GWF-(1,14799)
        420          9         20 -2.49152179E-03                    1_GWF-(1,26420)  1.90427098E-04                    1_GWF-(1,14800)
        421          9         21 -2.99172667E-03                    1_GWF-(1,11458)  2.64904498E-04                    1_GWF-(1,14801)
        422          9         22 -2.45132636E-03                    1_GWF-(1,26350) -2.41514809E-04                    1_GWF-(1,14801)
        423          9         23 -2.32560338E-03                    1_GWF-(1,26623)  2.50087422E-04                    1_GWF-(1,14801)
        424          9         24 -3.28147115E-03                    1_GWF-(1,26622)  1.30764790E-04                    1_GWF-(1,14800)
        425          9         25 -2.97224477E-03                    1_GWF-(1,26649)  6.39052003E-05                    1_GWF-(1,14798)
        426          9         26 -2.29126708E-03                    1_GWF-(1,26622)  1.65020292E-04                    1_GWF-(1,14801)
        427          9         27 -2.30542577E-03                    1_GWF-(1,11458)  1.75140904E-04                    1_GWF-(1,14800)
        428          9         28  1.62556671E-03                    1_GWF-(1,26649)  2.00814609E-04                    1_GWF-(1,14801)
        429          9         29 -2.03246700E-03                    1_GWF-(1,11438)  1.68430262E-04                    1_GWF-(1,14800)
        430          9         30  2.06475560E-03                    1_GWF-(1,11438)  1.42600667E-04                    1_GWF-(1,14801)
        431          9         31  1.94135297E-03                    1_GWF-(1,26543)  1.08900284E-04                    1_GWF-(1,14799)
        432          9         32  2.11408451E-03                    1_GWF-(1,26588)  6.26508428E-05                    1_GWF-(1,14798)
        433          9         33  1.77451350E-03                    1_GWF-(1,26543)  9.82281472E-05                    1_GWF-(1,14801)
        434          9         34  1.53070686E-03                    1_GWF-(1,26588)  1.18906655E-04                    1_GWF-(1,14800)
        435          9         35 -1.99527028E-03                    1_GWF-(1,11438)  1.33453146E-04                    1_GWF-(1,14801)
        436          9         36  1.93779650E-03                    1_GWF-(1,26218)  1.51988559E-04                    1_GWF-(1,14799)
        437          9         37  1.10705146E-03                    1_GWF-(1,26217) -1.67760918E-04                    1_GWF-(1,14799)
        438          9         38 -1.70209079E-03                    1_GWF-(1,11438)  2.38126729E-04                    1_GWF-(1,14799)
        439          9         39  1.75020233E-03                    1_GWF-(1,11438) -2.27239394E-04                    1_GWF-(1,14799)
        440          9         40 -1.25646699E-03                    1_GWF-(1,26665)  2.33736962E-04                    1_GWF-(1,14799)
        441          9         41 -1.62937945E-03                    1_GWF-(1,26666) -1.42690080E-04                    1_GWF-(1,14799)
        442          9         42 -1.66416460E-03                    1_GWF-(1,26665)  7.17704493E-05                    1_GWF-(1,14799)
        443          9         43 -1.11748782E-03                    1_GWF-(1,26666)  6.23658943E-05                    1_GWF-(1,14799)
        444          9         44  1.23527524E-03                    1_GWF-(1,26666) -1.27080378E-04                    1_GWF-(1,14799)
        445          9         45  1.41536212E-03                    1_GWF-(1,26665)  2.07626707E-04                    1_GWF-(1,14799)
        446          9         46 -8.90817858E-04                    1_GWF-(1,11453) -2.26350859E-04                    1_GWF-(1,14799)
        447          9         47  1.21248242E-03                    1_GWF-(1,11453)  2.36870974E-04                    1_GWF-(1,14799)
        448          9         48  1.07952975E-03                    1_GWF-(1,11438) -2.29244006E-04                    1_GWF-(1,14799)
        449          9         49 -9.07940186E-04                    1_GWF-(1,26666)  3.19871185E-04                    1_GWF-(1,14799)
        450          9         50  9.99724141E-04                    1_GWF-(1,11453) -2.53235174E-04                    1_GWF-(1,14799)
        451         10          1 -8.72764928E-04                    1_GWF-(1,11453)  3.13974041E-04                    1_GWF-(1,14799)
        452         10          2  8.26837277E-04                    1_GWF-(1,26666) -2.16009584E-04                    1_GWF-(1,14799)
        453         10          3 -8.74441857E-04                    1_GWF-(1,26218)  2.10613220E-04                    1_GWF-(1,14799)
        454         10          4 -1.17153633E-03                    1_GWF-(1,11453) -1.95823793E-04                    1_GWF-(1,14799)
        455         10          5  6.59361385E-04                    1_GWF-(1,11453)  1.76388863E-04                    1_GWF-(1,14799)
        456         10          6 -1.10982049E-03                    1_GWF-(1,26665) -1.06369412E-04                    1_GWF-(1,14799)
        457         10          7 -1.05770400E-03                    1_GWF-(1,11453)  5.23942344E-05                    1_GWF-(1,14799)
        458         10          8 -8.70542317E-04                    1_GWF-(1,26665)  4.87103149E-05                    1_GWF-(1,14799)
        459         10          9  1.19610448E-03                    1_GWF-(1,26665) -9.63468728E-05                    1_GWF-(1,14799)
        460         10         10  1.11913656E-03                    1_GWF-(1,26666)  1.58185814E-04                    1_GWF-(1,14799)
        461         10         11  7.77384461E-04                    1_GWF-(1,26665) -1.52286490E-04                    1_GWF-(1,14799)
        462         10         12 -1.05054184E-03                    1_GWF-(1,11438)  1.51488642E-04                    1_GWF-(1,14799)
[...]
        682         14         32  1.32263071E-05                    1_GWF-(1,11438)  8.59928096E-07                    1_GWF-(1,14799)
        683         14         33 -1.27527372E-05                    1_GWF-(1,26665)  9.09051451E-07                    1_GWF-(1,14801)
        684         14         34  1.18162564E-05                    1_GWF-(1,11458)  1.03873990E-06                    1_GWF-(1,14800)
        685         14         35  1.42721435E-05                    1_GWF-(1,11438)  1.42765043E-06                    1_GWF-(1,14801)
        686         14         36 -8.89178343E-06                    1_GWF-(1,26420)  1.30495368E-06                    1_GWF-(1,14800)
        687         14         37  9.73447155E-06                    1_GWF-(1,11458)  1.60103315E-06                    1_GWF-(1,14801)
        688         14         38  1.58048296E-05                    1_GWF-(1,11438)  1.42858840E-06                    1_GWF-(1,14800)
        689         14         39 -9.80495689E-06                    1_GWF-(1,26422)  1.56638833E-06                    1_GWF-(1,14801)
        690         14         40 -7.57998555E-06                    1_GWF-(1,26350)  1.11867476E-06                    1_GWF-(1,14800)
        691         14         41  1.65515956E-05                    1_GWF-(1,11438)  9.20028259E-07                    1_GWF-(1,14801)
        692         14         42 -1.05208676E-05                    1_GWF-(1,11438)  4.77547921E-07                    1_GWF-(1,14798)
        693         14         43  1.17745662E-05                    1_GWF-(1,26350)  5.50513611E-07                    1_GWF-(1,14799)
        694         14         44  1.38714805E-05                    1_GWF-(1,11438)  4.16094540E-07                    1_GWF-(1,14801)
        695         14         45  1.39576588E-05                    1_GWF-(1,26487)  5.01134231E-07                    1_GWF-(1,14800)
        696         14         46  1.49670266E-05                    1_GWF-(1,26486)  4.57445938E-07                    1_GWF-(1,14799)
        697         14         47  1.33107334E-05                    1_GWF-(1,11438)  3.86724652E-07                    1_GWF-(1,14798)
        698         14         48  1.03513000E-05                    1_GWF-(1,26543)  4.19715003E-07                    1_GWF-(1,14799)
        699         14         49 -1.36890638E-05                    1_GWF-(1,11438)  6.04773903E-07                    1_GWF-(1,14801)
        700         14         50  1.59001633E-05                    1_GWF-(1,11438)  6.98879740E-07                    1_GWF-(1,14800)
        701         15          1 -1.17175458E-05                    1_GWF-(1,11438)  1.30368429E-06                    1_GWF-(1,14801)
        702         15          2 -1.21092816E-05                    1_GWF-(1,26588)  8.63759057E-07                    1_GWF-(1,14800)
        703         15          3 -1.16708516E-05                    1_GWF-(1,26543)  3.20442333E-07                    1_GWF-(1,14801)
        704         15          4 -1.05806792E-05                    1_GWF-(1,26588)  6.72619443E-07                    1_GWF-(1,14801)
        705         15          5 -1.19260671E-05                    1_GWF-(1,26486)  9.39165425E-07                    1_GWF-(1,14800)
        706         15          6  1.25519964E-05                    1_GWF-(1,11438)  1.23751092E-06                    1_GWF-(1,14801)
        707         15          7 -1.19769789E-05                    1_GWF-(1,26422)  9.58670366E-07                    1_GWF-(1,14800)
        708         15          8 -9.31898108E-06                    1_GWF-(1,26350)  6.57775974E-07                    1_GWF-(1,14801)
        709         15          9  1.29533213E-05                    1_GWF-(1,11438)  2.89430814E-07                    1_GWF-(1,14799)
        710         15         10  9.27458868E-06                    1_GWF-(1,26588)  6.17681326E-07                    1_GWF-(1,14800)
        711         15         11  7.37134092E-06                    1_GWF-(1,26487)  8.47064084E-07                    1_GWF-(1,14801)
        712         15         12  1.02225330E-05                    1_GWF-(1,11438)  4.73189655E-07                    1_GWF-(1,14800)
        713         15         13  9.36134541E-06                    1_GWF-(1,26422)  1.96873723E-07                    1_GWF-(1,14798)
        714         15         14  8.14356663E-06                    1_GWF-(1,26350)  3.39682886E-07                    1_GWF-(1,14799)
        715         15         15 -7.68706946E-06                    1_GWF-(1,11458)  4.75183225E-07                    1_GWF-(1,14800)
        716         15         16  8.30465895E-06                    1_GWF-(1,26420)  6.77308700E-07                    1_GWF-(1,14801)
        717         15         17  7.76568736E-06                    1_GWF-(1,26487)  5.66922714E-07                    1_GWF-(1,14800)
        718         15         18  7.43596916E-06                    1_GWF-(1,26486)  2.88091395E-07                    1_GWF-(1,14801)
        719         15         19  6.20608571E-06                    1_GWF-(1,26647)  4.22995640E-07                    1_GWF-(1,14801)
        720         15         20 -8.40690449E-06                    1_GWF-(1,11438)  7.95287998E-07                    1_GWF-(1,14800)
        721         15         21 -1.00918304E-05                    1_GWF-(1,26486)  1.23559086E-06                    1_GWF-(1,14801)
        722         15         22 -6.64894272E-06                    1_GWF-(1,26350) -1.22283963E-06                    1_GWF-(1,14801)
        723         15         23 -9.55496337E-06                    1_GWF-(1,11438)  1.21397624E-06                    1_GWF-(1,14801)
        724         15         24 -8.81066626E-06                    1_GWF-(1,26622)  7.84592698E-07                    1_GWF-(1,14800)
        725         15         25 -7.89516503E-06                    1_GWF-(1,26623)  3.97830005E-07                    1_GWF-(1,14801)
        726         15         26 -7.62486256E-06                    1_GWF-(1,11438)  2.92734863E-07                    1_GWF-(1,14799)
        727         15         27  5.85731602E-06                    1_GWF-(1,11438)  6.09262293E-07                    1_GWF-(1,14800)
        728         15         28  4.50128083E-06                    1_GWF-(1,26649)  9.55813664E-07                    1_GWF-(1,14801)
        729         15         29 -6.88873453E-06                    1_GWF-(1,11438) -8.67346366E-07                    1_GWF-(1,14801)
        730         15         30  6.21788793E-06                    1_GWF-(1,26623)  7.49073126E-07                    1_GWF-(1,14801)
        731         15         31  4.93198388E-06                    1_GWF-(1,26543)  3.64379104E-07                    1_GWF-(1,14800)
        732         15         32  5.79931790E-06                    1_GWF-(1,26588)  1.66540664E-07                    1_GWF-(1,14798)
        733         15         33  5.96910159E-06                    1_GWF-(1,26543)  4.96333201E-07                    1_GWF-(1,14801)
        734         15         34 -4.59241173E-06                    1_GWF-(1,11458)  5.12186688E-07                    1_GWF-(1,14800)
        735         15         35 -5.83598150E-06                    1_GWF-(1,11438)  5.37861802E-07                    1_GWF-(1,14801)
        736         15         36  4.92306633E-06                    1_GWF-(1,26422)  3.93522345E-07                    1_GWF-(1,14800)
        737         15         37  4.28522313E-06                    1_GWF-(1,26350) -3.89229688E-07                    1_GWF-(1,14799)
        738         15         38 -6.44262506E-06                    1_GWF-(1,11438)  6.89439237E-07                    1_GWF-(1,14799)
        739         15         39  2.96492297E-06                    1_GWF-(1,11438) -7.78714624E-07                    1_GWF-(1,14799)
        740         15         40 -3.35141317E-06                    1_GWF-(1,26420)  1.05435508E-06                    1_GWF-(1,14799)
        741         15         41 -5.75438145E-06                    1_GWF-(1,26487) -8.93236864E-07                    1_GWF-(1,14799)
        742         15         42 -5.92651837E-06                    1_GWF-(1,26486)  5.99410945E-07                    1_GWF-(1,14799)
        743         15         43 -5.79951091E-06                    1_GWF-(1,26487)  1.30356829E-07                    1_GWF-(1,14799)
        744         15         44 -3.41826128E-06                    1_GWF-(1,11438) -6.20737147E-07                    1_GWF-(1,14799)
        745         15         45  3.32112100E-06                    1_GWF-(1,26486)  9.47807179E-07                    1_GWF-(1,14799)
        746         15         46  3.60423823E-06                    1_GWF-(1,11438) -8.32524741E-07                    1_GWF-(1,14799)
        747         15         47 -3.32499648E-06                    1_GWF-(1,11438)  8.13182678E-07                    1_GWF-(1,14799)
        748         15         48 -3.12227844E-06                    1_GWF-(1,26649) -7.50184550E-07                    1_GWF-(1,14799)
        749         15         49  2.75239944E-06                    1_GWF-(1,11438)  6.33483258E-07                    1_GWF-(1,14799)
        750         15         50 -2.80187625E-06                    1_GWF-(1,26665)  7.76719431E-08                    1_GWF-(1,14798)
        751         16          1 -3.32800666E-06                    1_GWF-(1,26588)  1.81958311E-07                    1_GWF-(1,14799)
        752         16          2  3.77597599E-06                    1_GWF-(1,26588)  6.30062237E-08                    1_GWF-(1,14798)
        753         16          3  3.65078107E-06                    1_GWF-(1,26649)  5.17885429E-08                    1_GWF-(1,14798)
        754         16          4  2.40722227E-06                    1_GWF-(1,26160)  1.47772308E-07                    1_GWF-(1,14799)
        755         16          5  2.33380659E-06                    1_GWF-(1,25818)  1.38620013E-07                    1_GWF-(1,14798)
        756         16          6  3.14991864E-06                    1_GWF-(1,26589)  2.27609408E-07                    1_GWF-(1,14799)
        757         16          7  4.26008074E-06                    1_GWF-(1,26588)  7.61101430E-08                    1_GWF-(1,14798)
        758         16          8  3.78864206E-06                    1_GWF-(1,26543)  9.28403616E-08                    1_GWF-(1,14798)
        759         16          9 -2.74724678E-06                    1_GWF-(1,26622)  3.15058640E-07                    1_GWF-(1,14799)
        760         16         10 -2.47173432E-06                    1_GWF-(1,26623) -2.67390954E-07                    1_GWF-(1,14799)
        761         16         11  2.64752160E-06                    1_GWF-(1,26666)  3.34946477E-07                    1_GWF-(1,14799)
        762         16         12 -3.33660950E-06                    1_GWF-(1,26666) -2.86897057E-07                    1_GWF-(1,14799)
        763         16         13 -4.16852549E-06                    1_GWF-(1,26665)  2.28024267E-07                    1_GWF-(1,14799)
        764         16         14  2.91484423E-06                    1_GWF-(1,26665)  5.97429277E-08                    1_GWF-(1,14799)
        765         16         15 -3.28640635E-06                    1_GWF-(1,26218) -2.32287548E-07                    1_GWF-(1,14799)
        766         16         16 -3.02192003E-06                    1_GWF-(1,26217)  3.90161596E-07                    1_GWF-(1,14799)
        767         16         17 -2.41024521E-06                    1_GWF-(1,26486) -2.75832679E-07                    1_GWF-(1,14799)
        768         16         18 -2.63290815E-06                    1_GWF-(1,26487)  1.53373955E-07                    1_GWF-(1,14799)
        769         16         19 -2.78255112E-06                    1_GWF-(1,26486)  1.45627436E-07                    1_GWF-(1,14799)
        770         16         20 -2.05942102E-06                    1_GWF-(1,26487) -2.68712064E-07                    1_GWF-(1,14799)
        771         16         21  1.98896551E-06                    1_GWF-(1,26218)  4.48714043E-07                    1_GWF-(1,14799)
        772         16         22 -1.59808374E-06                    1_GWF-(1,26622) -4.32732364E-07                    1_GWF-(1,14799)
        773         16         23 -1.41830278E-06                    1_GWF-(1,26217)  5.06343564E-07                    1_GWF-(1,14799)
        774         16         24 -1.57440136E-06                    1_GWF-(1,26350) -4.23352639E-07                    1_GWF-(1,14799)
        775         16         25 -1.76172210E-06                    1_GWF-(1,26422)  4.60921249E-07                    1_GWF-(1,14799)
        776         16         26  1.73166821E-06                    1_GWF-(1,26543) -2.97016559E-07                    1_GWF-(1,14799)
        777         16         27  2.83923068E-06                    1_GWF-(1,26588)  2.25297169E-07                    1_GWF-(1,14799)
        778         16         28  2.73229028E-06                    1_GWF-(1,26589)  5.49091173E-08                    1_GWF-(1,14801)
        779         16         29  2.31242190E-06                    1_GWF-(1,26420)  1.41351853E-07                    1_GWF-(1,14798)
        780         16         30  2.24568254E-06                    1_GWF-(1,26487)  2.74934096E-07                    1_GWF-(1,14799)
        781         16         31  2.33464801E-06                    1_GWF-(1,26486) -2.43477521E-07                    1_GWF-(1,14799)
        782         16         32 -1.71209219E-06                    1_GWF-(1,26623)  2.51819266E-07                    1_GWF-(1,14799)
        783         16         33 -1.27298434E-06                    1_GWF-(1,26647)  9.61555568E-08                    1_GWF-(1,14798)
        784         16         34 -1.53290649E-06                    1_GWF-(1,26649)  4.11407533E-08                    1_GWF-(1,14800)
        785         16         35  1.54066246E-06                    1_GWF-(1,26649)  1.54003427E-07                    1_GWF-(1,14799)
        786         16         36  1.43765634E-06                    1_GWF-(1,26648)  1.21000070E-07                    1_GWF-(1,14798)
        787         16         37 -1.51621769E-06                    1_GWF-(1,26218)  1.62684894E-07                    1_GWF-(1,14799)
        788         16         38 -1.31039097E-06                    1_GWF-(1,26217)  8.80918096E-08                    1_GWF-(1,14798)
        789         16         39 -1.19583804E-06                    1_GWF-(1,26486)  6.29017727E-08                    1_GWF-(1,14800)
        790         16         40 -1.09021241E-06                    1_GWF-(1,26487)  7.48205187E-08                    1_GWF-(1,14799)
        791         16         41 -1.32147616E-06                    1_GWF-(1,26486)  8.67467233E-08                    1_GWF-(1,14798)
        792         16         42  1.34439823E-06                    1_GWF-(1,26486)  1.01867610E-07                    1_GWF-(1,14799)
        793         16         43  1.00884949E-06                    1_GWF-(1,26487)  6.03778095E-08                    1_GWF-(1,14801)
        794         16         44  1.40435179E-06                    1_GWF-(1,26350)  6.76479421E-08                    1_GWF-(1,14800)
        795         16         45  1.50184395E-06                    1_GWF-(1,26422)  1.19690156E-07                    1_GWF-(1,14799)
        796         16         46  1.12494911E-06                    1_GWF-(1,26420)  8.18521022E-08                    1_GWF-(1,14798)
        797         16         47  9.57133275E-07                    1_GWF-(1,26486)  1.17996959E-07                    1_GWF-(1,14799)
        798         17          1 -8.25580207E-07                    1_GWF-(1,26665)  7.55220950E-08                    1_GWF-(1,14798)
 --------------------------------------------------------------------------------------------------------------------------------------


 UBDSV1 SAVING     FLOW-JA-FACE ON UNIT   1020 AT TIME STEP      1, STRESS PERIOD      1
 UBDSV06 SAVING       DATA-SPDIS IN MODEL ML               PACKAGE NPF             CONNECTED TO MODEL ML               PACKAGE NPF              ON UNIT   1020 AT TIME STEP      1, STRESS PERIOD      1
 UBDSV06 SAVING              WEL IN MODEL ML               PACKAGE ML              CONNECTED TO MODEL ML               PACKAGE WEL_0            ON UNIT   1020 AT TIME STEP      1, STRESS PERIOD      1
 UBDSV06 SAVING              DRN IN MODEL ML               PACKAGE ML              CONNECTED TO MODEL ML               PACKAGE DRN_0            ON UNIT   1020 AT TIME STEP      1, STRESS PERIOD      1
 UBDSV06 SAVING              RIV IN MODEL ML               PACKAGE ML              CONNECTED TO MODEL ML               PACKAGE RIV_0            ON UNIT   1020 AT TIME STEP      1, STRESS PERIOD      1
 UBDSV06 SAVING              GHB IN MODEL ML               PACKAGE ML              CONNECTED TO MODEL ML               PACKAGE GHB_0            ON UNIT   1020 AT TIME STEP      1, STRESS PERIOD      1
 UBDSV06 SAVING              RCH IN MODEL ML               PACKAGE ML              CONNECTED TO MODEL ML               PACKAGE RCHA_0           ON UNIT   1020 AT TIME STEP      1, STRESS PERIOD      1

 HEAD WILL BE SAVED ON UNIT 1021 AT END OF TIME STEP    1, STRESS PERIOD    1


  VOLUME BUDGET FOR ENTIRE MODEL AT END OF TIME STEP    1, STRESS PERIOD   1
  ---------------------------------------------------------------------------------------------------

     CUMULATIVE VOLUME      L**3       RATES FOR THIS TIME STEP      L**3/T          PACKAGE NAME    
     ------------------                 ------------------------                     ----------------

           IN:                                      IN:
           ---                                      ---
                 WEL =           0.0000                   WEL =           0.0000     WEL_0           
                 DRN =           0.0000                   DRN =           0.0000     DRN_0           
                 RIV =           8.3566                   RIV =           1.1938     RIV_0           
                 GHB =           8.6737                   GHB =           1.2391     GHB_0           
                 RCH =           5.7845                   RCH =           0.8264     RCHA_0          

            TOTAL IN =          22.8147              TOTAL IN =           3.2592

          OUT:                                     OUT:
          ----                                     ----
                 WEL =           1.0423                   WEL =           0.1489     WEL_0           
                 DRN =           1.5888                   DRN =           0.2270     DRN_0           
                 RIV =          19.1677                   RIV =           2.7382     RIV_0           
                 GHB =           1.0159                   GHB =           0.1451     GHB_0           
                 RCH =           0.0000                   RCH =           0.0000     RCHA_0          

           TOTAL OUT =          22.8147             TOTAL OUT =           3.2592

            IN - OUT =      -1.0220E-05              IN - OUT =      -1.4600E-06

 PERCENT DISCREPANCY =          -0.00     PERCENT DISCREPANCY =          -0.00




         TIME SUMMARY AT END OF TIME STEP    1 IN STRESS PERIOD    1
                    SECONDS     MINUTES      HOURS       DAYS        YEARS
                    -----------------------------------------------------------
   TIME STEP LENGTH  7.0000     0.11667     1.94444E-03 8.10185E-05 2.21817E-07
 STRESS PERIOD TIME  7.0000     0.11667     1.94444E-03 8.10185E-05 2.21817E-07
         TOTAL TIME  7.0000     0.11667     1.94444E-03 8.10185E-05 2.21817E-07


end timestep

